# generated using pymatgen
data_H7(C4O)2
_symmetry_space_group_name_H-M   'P 1'
_cell_length_a   6.10470000
_cell_length_b   7.76750000
_cell_length_c   9.60520000
_cell_angle_alpha   90.00000000
_cell_angle_beta   95.21500000
_cell_angle_gamma   90.00000000
_symmetry_Int_Tables_number   1
_chemical_formula_structural   H7(C4O)2
_chemical_formula_sum   'H28 C32 O8'
_cell_volume   453.57652260
_cell_formula_units_Z   4
loop_
 _symmetry_equiv_pos_site_id
 _symmetry_equiv_pos_as_xyz
  1  'x, y, z'
loop_
 _atom_site_type_symbol
 _atom_site_label
 _atom_site_symmetry_multiplicity
 _atom_site_fract_x
 _atom_site_fract_y
 _atom_site_fract_z
 _atom_site_occupancy
  C  C0  1  0.669400  0.361240  0.583290  1
  C  C1  1  0.805800  0.311520  0.465860  1
  C  C2  1  0.513900  0.216140  0.607260  1
  C  C3  1  0.669400  0.361240  0.583290  1
  C  C4  1  0.805800  0.311520  0.465860  1
  C  C5  1  0.513900  0.216140  0.607260  1
  C  C6  1  0.682800  0.154400  0.396200  1
  C  C7  1  0.593500  0.063900  0.520800  1
  C  C8  1  0.406500  -0.063900  0.479200  1
  C  C9  1  0.486100  -0.216140  0.392740  1
  C  C10  1  0.317200  -0.154400  0.603800  1
  C  C11  1  0.486100  -0.216140  0.392740  1
  C  C12  1  0.194200  -0.311520  0.534140  1
  C  C13  1  0.194200  -0.311520  0.534140  1
  C  C14  1  0.330600  -0.361240  0.416710  1
  C  C15  1  0.330600  -0.361240  0.416710  1
  C  C16  1  0.830600  0.861240  0.916710  1
  C  C17  1  0.694200  0.811520  1.034140  1
  C  C18  1  0.986100  0.716140  0.892740  1
  C  C19  1  0.830600  0.861240  0.916710  1
  C  C20  1  0.694200  0.811520  1.034140  1
  C  C21  1  0.986100  0.716140  0.892740  1
  C  C22  1  0.817200  0.654400  1.103800  1
  C  C23  1  0.906500  0.563900  0.979200  1
  C  C24  1  1.093500  0.436100  1.020800  1
  C  C25  1  1.013900  0.283860  1.107260  1
  C  C26  1  1.182800  0.345600  0.896200  1
  C  C27  1  1.013900  0.283860  1.107260  1
  C  C28  1  1.305800  0.188480  0.965860  1
  C  C29  1  1.305800  0.188480  0.965860  1
  C  C30  1  1.169400  0.138760  1.083290  1
  C  C31  1  1.169400  0.138760  1.083290  1
  H  H32  1  0.954132  0.280380  0.501902  1
  H  H33  1  0.813021  0.405322  0.399766  1
  H  H34  1  0.363846  0.247392  0.575270  1
  H  H35  1  0.520597  0.186642  0.705691  1
  H  H36  1  0.564501  0.190776  0.328313  1
  H  H37  1  0.782418  0.080337  0.350602  1
  H  H38  1  0.713715  0.003811  0.575309  1
  H  H39  1  0.286285  -0.003811  0.424691  1
  H  H40  1  0.435499  -0.190776  0.671687  1
  H  H41  1  0.217582  -0.080337  0.649398  1
  H  H42  1  0.636154  -0.247392  0.424730  1
  H  H43  1  0.479403  -0.186642  0.294309  1
  H  H44  1  0.045868  -0.280380  0.498098  1
  H  H45  1  0.186979  -0.405322  0.600234  1
  H  H46  1  0.545868  0.780380  0.998098  1
  H  H47  1  0.686979  0.905322  1.100234  1
  H  H48  1  1.136154  0.747392  0.924730  1
  H  H49  1  0.979403  0.686642  0.794309  1
  H  H50  1  0.935499  0.690776  1.171687  1
  H  H51  1  0.717582  0.580337  1.149398  1
  H  H52  1  0.786285  0.503811  0.924691  1
  H  H53  1  1.213715  0.496189  1.075309  1
  H  H54  1  1.064501  0.309224  0.828313  1
  H  H55  1  1.282418  0.419663  0.850602  1
  H  H56  1  0.863846  0.252608  1.075270  1
  H  H57  1  1.020597  0.313358  1.205691  1
  H  H58  1  1.454132  0.219620  1.001902  1
  H  H59  1  1.313021  0.094678  0.899766  1
  O  O60  1  0.681200  0.497650  0.645530  1
  O  O61  1  0.681200  0.497650  0.645530  1
  O  O62  1  0.318800  -0.497650  0.354470  1
  O  O63  1  0.318800  -0.497650  0.354470  1
  O  O64  1  0.818800  0.997650  0.854470  1
  O  O65  1  0.818800  0.997650  0.854470  1
  O  O66  1  1.181200  0.002350  1.145530  1
  O  O67  1  1.181200  0.002350  1.145530  1
