# generated using pymatgen
data_H21(C6O)2
_symmetry_space_group_name_H-M   'P 1'
_cell_length_a   6.10470000
_cell_length_b   7.76750000
_cell_length_c   9.60520000
_cell_angle_alpha   90.00000000
_cell_angle_beta   95.21500000
_cell_angle_gamma   90.00000000
_symmetry_Int_Tables_number   1
_chemical_formula_structural   H21(C6O)2
_chemical_formula_sum   'H84 C48 O8'
_cell_volume   453.57652260
_cell_formula_units_Z   4
loop_
 _symmetry_equiv_pos_site_id
 _symmetry_equiv_pos_as_xyz
  1  'x, y, z'
loop_
 _atom_site_type_symbol
 _atom_site_label
 _atom_site_symmetry_multiplicity
 _atom_site_fract_x
 _atom_site_fract_y
 _atom_site_fract_z
 _atom_site_occupancy
  C  C0  1  0.669400  0.361240  0.583290  1
  C  C1  1  0.805800  0.311520  0.465860  1
  C  C2  1  0.513900  0.216140  0.607260  1
  C  C3  1  0.669400  0.361240  0.583290  1
  C  C4  1  0.805800  0.311520  0.465860  1
  C  C5  1  0.513900  0.216140  0.607260  1
  C  C6  1  0.682800  0.154400  0.396200  1
  C  C7  1  0.682800  0.154400  0.396200  1
  C  C8  1  0.773200  0.114200  0.461300  1
  C  C9  1  0.593500  0.063900  0.520800  1
  C  C10  1  0.593500  0.063900  0.520800  1
  C  C11  1  0.531600  0.091900  0.484400  1
  C  C12  1  0.406500  -0.063900  0.479200  1
  C  C13  1  0.406500  -0.063900  0.479200  1
  C  C14  1  0.468400  -0.091900  0.515600  1
  C  C15  1  0.317200  -0.154400  0.603800  1
  C  C16  1  0.486100  -0.216140  0.392740  1
  C  C17  1  0.317200  -0.154400  0.603800  1
  C  C18  1  0.486100  -0.216140  0.392740  1
  C  C19  1  0.226800  -0.114200  0.538700  1
  C  C20  1  0.194200  -0.311520  0.534140  1
  C  C21  1  0.194200  -0.311520  0.534140  1
  C  C22  1  0.330600  -0.361240  0.416710  1
  C  C23  1  0.330600  -0.361240  0.416710  1
  C  C24  1  0.830600  0.861240  0.916710  1
  C  C25  1  0.694200  0.811520  1.034140  1
  C  C26  1  0.986100  0.716140  0.892740  1
  C  C27  1  0.830600  0.861240  0.916710  1
  C  C28  1  0.694200  0.811520  1.034140  1
  C  C29  1  0.986100  0.716140  0.892740  1
  C  C30  1  0.817200  0.654400  1.103800  1
  C  C31  1  0.817200  0.654400  1.103800  1
  C  C32  1  0.726800  0.614200  1.038700  1
  C  C33  1  0.906500  0.563900  0.979200  1
  C  C34  1  0.906500  0.563900  0.979200  1
  C  C35  1  0.968400  0.591900  1.015600  1
  C  C36  1  1.093500  0.436100  1.020800  1
  C  C37  1  1.093500  0.436100  1.020800  1
  C  C38  1  1.031600  0.408100  0.984400  1
  C  C39  1  1.182800  0.345600  0.896200  1
  C  C40  1  1.013900  0.283860  1.107260  1
  C  C41  1  1.182800  0.345600  0.896200  1
  C  C42  1  1.013900  0.283860  1.107260  1
  C  C43  1  1.273200  0.385800  0.961300  1
  C  C44  1  1.305800  0.188480  0.965860  1
  C  C45  1  1.305800  0.188480  0.965860  1
  C  C46  1  1.169400  0.138760  1.083290  1
  C  C47  1  1.169400  0.138760  1.083290  1
  H  H48  1  0.954132  0.280380  0.501902  1
  H  H49  1  0.813021  0.405322  0.399766  1
  H  H50  1  0.954132  0.280380  0.501902  1
  H  H51  1  0.813021  0.405322  0.399766  1
  H  H52  1  0.959321  0.341902  0.487295  1
  H  H53  1  0.750890  0.365009  0.378320  1
  H  H54  1  0.363846  0.247392  0.575270  1
  H  H55  1  0.520597  0.186642  0.705691  1
  H  H56  1  0.363846  0.247392  0.575270  1
  H  H57  1  0.520597  0.186642  0.705691  1
  H  H58  1  0.364583  0.258590  0.608281  1
  H  H59  1  0.556220  0.159235  0.695514  1
  H  H60  1  0.564501  0.190776  0.328313  1
  H  H61  1  0.782418  0.080337  0.350602  1
  H  H62  1  0.564501  0.190776  0.328313  1
  H  H63  1  0.782418  0.080337  0.350602  1
  H  H64  1  0.804581  0.067645  0.371507  1
  H  H65  1  0.867110  0.057996  0.534568  1
  H  H66  1  0.713715  0.003811  0.575309  1
  H  H67  1  0.713715  0.003811  0.575309  1
  H  H68  1  0.439998  0.133784  0.402304  1
  H  H69  1  0.286285  -0.003811  0.424691  1
  H  H70  1  0.286285  -0.003811  0.424691  1
  H  H71  1  0.560002  -0.133784  0.597696  1
  H  H72  1  0.435499  -0.190776  0.671687  1
  H  H73  1  0.217582  -0.080337  0.649398  1
  H  H74  1  0.435499  -0.190776  0.671687  1
  H  H75  1  0.217582  -0.080337  0.649398  1
  H  H76  1  0.195419  -0.067645  0.628493  1
  H  H77  1  0.636154  -0.247392  0.424730  1
  H  H78  1  0.479403  -0.186642  0.294309  1
  H  H79  1  0.636154  -0.247392  0.424730  1
  H  H80  1  0.479403  -0.186642  0.294309  1
  H  H81  1  0.635417  -0.258590  0.391719  1
  H  H82  1  0.443780  -0.159235  0.304486  1
  H  H83  1  0.132890  -0.057996  0.465432  1
  H  H84  1  0.045868  -0.280380  0.498098  1
  H  H85  1  0.186979  -0.405322  0.600234  1
  H  H86  1  0.045868  -0.280380  0.498098  1
  H  H87  1  0.186979  -0.405322  0.600234  1
  H  H88  1  0.040679  -0.341902  0.512705  1
  H  H89  1  0.249110  -0.365009  0.621680  1
  H  H90  1  0.545868  0.780380  0.998098  1
  H  H91  1  0.686979  0.905322  1.100234  1
  H  H92  1  0.545868  0.780380  0.998098  1
  H  H93  1  0.686979  0.905322  1.100234  1
  H  H94  1  0.540679  0.841902  1.012705  1
  H  H95  1  0.749110  0.865009  1.121680  1
  H  H96  1  1.136154  0.747392  0.924730  1
  H  H97  1  0.979403  0.686642  0.794309  1
  H  H98  1  1.136154  0.747392  0.924730  1
  H  H99  1  0.979403  0.686642  0.794309  1
  H  H100  1  1.135417  0.758590  0.891719  1
  H  H101  1  0.943780  0.659235  0.804486  1
  H  H102  1  0.935499  0.690776  1.171687  1
  H  H103  1  0.717582  0.580337  1.149398  1
  H  H104  1  0.935499  0.690776  1.171687  1
  H  H105  1  0.717582  0.580337  1.149398  1
  H  H106  1  0.695419  0.567645  1.128493  1
  H  H107  1  0.632890  0.557996  0.965432  1
  H  H108  1  0.786285  0.503811  0.924691  1
  H  H109  1  0.786285  0.503811  0.924691  1
  H  H110  1  1.060002  0.633784  1.097696  1
  H  H111  1  1.213715  0.496189  1.075309  1
  H  H112  1  1.213715  0.496189  1.075309  1
  H  H113  1  0.939998  0.366216  0.902304  1
  H  H114  1  1.064501  0.309224  0.828313  1
  H  H115  1  1.282418  0.419663  0.850602  1
  H  H116  1  1.064501  0.309224  0.828313  1
  H  H117  1  1.282418  0.419663  0.850602  1
  H  H118  1  1.304581  0.432355  0.871507  1
  H  H119  1  0.863846  0.252608  1.075270  1
  H  H120  1  1.020597  0.313358  1.205691  1
  H  H121  1  0.863846  0.252608  1.075270  1
  H  H122  1  1.020597  0.313358  1.205691  1
  H  H123  1  0.864583  0.241410  1.108281  1
  H  H124  1  1.056220  0.340765  1.195514  1
  H  H125  1  1.367110  0.442004  1.034568  1
  H  H126  1  1.454132  0.219620  1.001902  1
  H  H127  1  1.313021  0.094678  0.899766  1
  H  H128  1  1.454132  0.219620  1.001902  1
  H  H129  1  1.313021  0.094678  0.899766  1
  H  H130  1  1.459321  0.158098  0.987295  1
  H  H131  1  1.250890  0.134991  0.878320  1
  O  O132  1  0.681200  0.497650  0.645530  1
  O  O133  1  0.681200  0.497650  0.645530  1
  O  O134  1  0.318800  -0.497650  0.354470  1
  O  O135  1  0.318800  -0.497650  0.354470  1
  O  O136  1  0.818800  0.997650  0.854470  1
  O  O137  1  0.818800  0.997650  0.854470  1
  O  O138  1  1.181200  0.002350  1.145530  1
  O  O139  1  1.181200  0.002350  1.145530  1
