# generated using pymatgen
data_H29C25S4
_symmetry_space_group_name_H-M   'P 1'
_cell_length_a   5.62900000
_cell_length_b   5.02100000
_cell_length_c   56.99700000
_cell_angle_alpha   90.00000000
_cell_angle_beta   90.01000000
_cell_angle_gamma   90.00000000
_symmetry_Int_Tables_number   1
_chemical_formula_structural   H29C25S4
_chemical_formula_sum   'H116 C100 S16'
_cell_volume   1610.91809884
_cell_formula_units_Z   4
loop_
 _symmetry_equiv_pos_site_id
 _symmetry_equiv_pos_as_xyz
  1  'x, y, z'
loop_
 _atom_site_type_symbol
 _atom_site_label
 _atom_site_symmetry_multiplicity
 _atom_site_fract_x
 _atom_site_fract_y
 _atom_site_fract_z
 _atom_site_occupancy
  H  H0  1  0.795700  0.132800  0.182100  1
  C  C1  1  0.922000  0.024000  0.187500  1
  C  C2  1  0.860010  -0.044990  0.188700  1
  H  H3  1  0.715300  0.039390  0.184400  1
  C  C4  1  1.029990  -0.181000  0.174000  1
  C  C5  1  1.007000  -0.191000  0.172900  1
  S  S6  1  1.048200  0.054910  0.214870  1
  S  S7  1  0.979210  -0.042600  0.216460  1
  H  H8  1  0.984810  -0.228700  0.158500  1
  H  H9  1  0.977310  -0.209200  0.156600  1
  C  C10  1  1.213990  -0.305990  0.187200  1
  C  C11  1  1.202990  -0.306990  0.185000  1
  C  C12  1  1.250010  -0.205990  0.209500  1
  C  C13  1  1.224000  -0.239990  0.208400  1
  C  C14  1  1.387000  -0.504000  0.175390  1
  C  C15  1  1.396000  -0.300000  0.226900  1
  C  C16  1  1.375990  -0.328000  0.227700  1
  H  H17  1  1.395600  -0.667100  0.185100  1
  H  H18  1  1.547990  -0.423200  0.175200  1
  C  C19  1  1.321000  -0.584010  0.150000  1
  C  C20  1  1.458000  -0.143000  0.247200  1
  C  C21  1  1.335000  -0.272000  0.252400  1
  S  S22  1  1.523690  -0.608500  0.228230  1
  S  S23  1  1.642410  -0.482590  0.222520  1
  H  H24  1  1.309310  -0.423400  0.139900  1
  H  H25  1  1.165690  -0.676500  0.149800  1
  C  C26  1  1.521000  -0.772990  0.140800  1
  H  H27  1  1.406300  0.034000  0.250000  1
  C  C28  1  1.607690  -0.293010  0.262540  1
  C  C29  1  1.538010  -0.365010  0.265000  1
  H  H30  1  1.199200  -0.189010  0.258900  1
  C  C31  1  1.660110  -0.544000  0.255090  1
  C  C32  1  1.708000  -0.494000  0.252400  1
  H  H33  1  1.675100  -0.678390  0.142200  1
  H  H34  1  1.528600  -0.930290  0.151300  1
  C  C35  1  1.495990  -0.868990  0.115900  1
  S  S36  1  1.744200  -0.227800  0.289230  1
  S  S37  1  1.624090  -0.353990  0.294100  1
  C  C38  1  1.809000  -0.696990  0.270000  1
  C  C39  1  1.929000  -0.548990  0.264100  1
  H  H40  1  1.488800  -0.714300  0.105200  1
  H  H41  1  1.345200  -0.969710  0.114300  1
  C  C42  1  1.707000  -1.050010  0.109040  1
  C  C43  1  1.871010  -0.539000  0.290200  1
  C  C44  1  1.896990  -0.491000  0.288700  1
  H  H45  1  1.860310  -0.874310  0.267100  1
  H  H46  1  2.070400  -0.611390  0.257000  1
  H  H47  1  1.715210  -1.201190  0.120200  1
  H  H48  1  1.856300  -0.947200  0.110600  1
  C  C49  1  1.693010  -1.163000  0.083740  1
  C  C50  1  2.036000  -0.605000  0.307000  1
  C  C51  1  2.044000  -0.618000  0.309200  1
  H  H52  1  1.546490  -1.271500  0.082200  1
  H  H53  1  1.681400  -1.013300  0.072500  1
  C  C54  1  1.905000  -1.333000  0.077630  1
  C  C55  1  2.019010  -0.557000  0.330700  1
  C  C56  1  2.099000  -0.515990  0.330900  1
  S  S57  1  2.290710  -0.789700  0.300770  1
  S  S58  1  2.221300  -0.894900  0.302920  1
  H  H59  1  2.049710  -1.223800  0.080200  1
  H  H60  1  1.911400  -1.482390  0.088900  1
  C  C61  1  1.920010  -1.448000  0.053200  1
  C  C62  1  2.205990  -0.665010  0.344400  1
  C  C63  1  2.289000  -0.652000  0.342500  1
  C  C64  1  1.928000  -0.315990  0.343200  1
  C  C65  1  2.371000  -0.803010  0.329300  1
  C  C66  1  2.341990  -0.895000  0.330100  1
  H  H67  1  1.925600  -1.298610  0.041900  1
  H  H68  1  1.772110  -1.548700  0.050200  1
  C  C69  1  2.134000  -1.634000  0.048320  1
  H  H70  1  2.219400  -0.650410  0.361000  1
  H  H71  1  2.367600  -0.591890  0.356300  1
  H  H72  1  1.755990  -0.305000  0.339900  1
  H  H73  1  2.002490  -0.159710  0.335600  1
  C  C74  1  1.958000  -0.276000  0.370100  1
  H  H75  1  2.509900  -0.890300  0.334800  1
  H  H76  1  2.433900  -1.037500  0.336300  1
  H  H77  1  2.283110  -1.534200  0.051300  1
  H  H78  1  2.129200  -1.784800  0.059500  1
  C  C79  1  2.140000  -1.739990  0.024330  1
  H  H80  1  2.121300  -0.215690  0.373700  1
  H  H81  1  1.927900  -0.445310  0.378500  1
  C  C82  1  1.771990  -0.060010  0.377500  1
  H  H83  1  1.988600  -1.832900  0.021100  1
  H  H84  1  2.154700  -1.590500  0.013100  1
  C  C85  1  2.337010  -1.925990  0.020500  1
  H  H86  1  1.797590  0.100300  0.367700  1
  H  H87  1  1.611500  -0.128500  0.374000  1
  C  C88  1  1.780000  0.023000  0.402900  1
  H  H89  1  2.394800  -1.908400  0.004400  1
  H  H90  1  2.281800  -2.108700  0.023100  1
  H  H91  1  2.466200  -1.885300  0.031500  1
  H  H92  1  1.926410  0.125390  0.406200  1
  H  H93  1  1.777400  -0.135910  0.413200  1
  C  C94  1  1.554990  0.199000  0.407300  1
  H  H95  1  1.548100  0.344690  0.395600  1
  H  H96  1  1.409600  0.090100  0.405700  1
  C  C97  1  1.571010  0.318000  0.432500  1
  H  H98  1  1.570600  0.171500  0.444100  1
  H  H99  1  1.721390  0.417510  0.434200  1
  C  C100  1  1.364000  0.503010  0.437400  1
  H  H101  1  1.213590  0.404900  0.434600  1
  H  H102  1  1.369500  0.653200  0.426200  1
  C  C103  1  1.364010  0.612010  0.462200  1
  H  H104  1  1.515800  0.704700  0.465200  1
  H  H105  1  1.350600  0.462700  0.473400  1
  C  C106  1  1.154000  0.810000  0.466300  1
  H  H107  1  1.173390  0.965600  0.455800  1
  H  H108  1  1.002700  0.721290  0.462300  1
  C  C109  1  1.145000  0.901990  0.490800  1
  H  H110  1  1.033200  1.053790  0.492000  1
  H  H111  1  1.304000  0.964610  0.495700  1
  C  C112  1  1.067000  0.686000  0.506400  1
  H  H113  1  1.092000  1.126310  0.498300  1
  C  C114  1  0.932990  1.186000  0.493600  1
  H  H115  1  1.061500  0.751900  0.522600  1
  H  H116  1  0.907990  0.626310  0.501700  1
  H  H117  1  1.178490  0.537200  0.505400  1
  H  H118  1  0.966810  0.553790  0.508000  1
  H  H119  1  0.938510  1.251900  0.477400  1
  H  H120  1  0.821500  1.037200  0.494600  1
  C  C121  1  0.854990  1.401990  0.509200  1
  H  H122  1  0.696010  1.464610  0.504300  1
  C  C123  1  0.846000  1.310000  0.533700  1
  H  H124  1  0.826600  1.465600  0.544200  1
  H  H125  1  0.997310  1.221290  0.537700  1
  C  C126  1  0.636000  1.112010  0.537800  1
  H  H127  1  0.484190  1.204700  0.534800  1
  H  H128  1  0.649390  0.962700  0.526600  1
  C  C129  1  0.635990  1.003010  0.562600  1
  H  H130  1  0.786400  0.904900  0.565400  1
  H  H131  1  0.630500  1.153200  0.573800  1
  C  C132  1  0.429000  0.818000  0.567500  1
  H  H133  1  0.429410  0.671500  0.555900  1
  H  H134  1  0.278600  0.917510  0.565800  1
  C  C135  1  0.445000  0.699000  0.592700  1
  H  H136  1  0.451890  0.844690  0.604400  1
  H  H137  1  0.590390  0.590100  0.594300  1
  C  C138  1  0.219990  0.523000  0.597100  1
  H  H139  1  0.073600  0.625390  0.593800  1
  H  H140  1  0.222600  0.364090  0.586800  1
  C  C141  1  0.228000  0.439990  0.622500  1
  H  H142  1  0.202400  0.600300  0.632300  1
  H  H143  1  0.388490  0.371500  0.626000  1
  C  C144  1  0.042010  0.224000  0.629900  1
  H  H145  1  -0.121290  0.284310  0.626300  1
  H  H146  1  0.072110  0.054690  0.621500  1
  C  C147  1  0.072010  0.184010  0.656800  1
  H  H148  1  0.244000  0.195000  0.660100  1
  H  H149  1  -0.002500  0.340290  0.664400  1
  C  C150  1  -0.019000  -0.057000  0.669300  1
  C  C151  1  -0.098990  -0.015990  0.669100  1
  C  C152  1  -0.035990  -0.105000  0.693000  1
  C  C153  1  -0.206000  -0.165010  0.655600  1
  C  C154  1  -0.043990  -0.118000  0.690800  1
  C  C155  1  -0.289000  -0.152000  0.657500  1
  C  C156  1  0.129000  -0.039000  0.709800  1
  C  C157  1  0.103000  0.009000  0.711300  1
  S  S158  1  -0.290700  -0.289700  0.699230  1
  S  S159  1  -0.221290  -0.394900  0.697080  1
  H  H160  1  -0.219410  -0.150410  0.639000  1
  H  H161  1  -0.367600  -0.091890  0.643700  1
  C  C162  1  -0.370990  -0.303010  0.670700  1
  C  C163  1  -0.342000  -0.395000  0.669900  1
  C  C164  1  0.191000  -0.196990  0.730000  1
  C  C165  1  0.070990  -0.048990  0.735900  1
  S  S166  1  0.255800  0.272200  0.710770  1
  S  S167  1  0.375900  0.146010  0.705900  1
  H  H168  1  -0.509890  -0.390300  0.665200  1
  H  H169  1  -0.433900  -0.537500  0.663700  1
  H  H170  1  0.139700  -0.374310  0.732900  1
  C  C171  1  0.339900  -0.043990  0.744910  1
  C  C172  1  0.291990  0.006000  0.747600  1
  H  H173  1  -0.070400  -0.111390  0.743000  1
  C  C174  1  0.392300  0.206990  0.737460  1
  C  C175  1  0.462000  0.134990  0.735000  1
  S  S176  1  0.476300  -0.108500  0.771770  1
  S  S177  1  0.357600  0.017410  0.777480  1
  C  C178  1  0.542000  0.357000  0.752800  1
  C  C179  1  0.664990  0.228000  0.747600  1
  C  C180  1  0.604000  0.200000  0.773100  1
  C  C181  1  0.624000  0.172000  0.772300  1
  H  H182  1  0.593700  0.534000  0.750000  1
  H  H183  1  0.800790  0.310990  0.741100  1
  C  C184  1  0.750000  0.294010  0.790500  1
  C  C185  1  0.776000  0.260010  0.791600  1
  C  C186  1  0.786000  0.194010  0.812800  1
  C  C187  1  0.797000  0.193010  0.815000  1
  S  S188  1  0.951810  0.554910  0.785130  1
  S  S189  1  1.020800  0.457400  0.783540  1
  C  C190  1  0.970000  0.319000  0.826000  1
  C  C191  1  0.993010  0.309000  0.827100  1
  C  C192  1  0.613000  -0.004000  0.824610  1
  C  C193  1  1.078000  0.524000  0.812500  1
  C  C194  1  1.140000  0.455010  0.811300  1
  H  H195  1  1.015200  0.271300  0.841500  1
  H  H196  1  1.022700  0.290800  0.843400  1
  H  H197  1  0.604410  -0.167100  0.814900  1
  H  H198  1  0.452000  0.076800  0.824800  1
  C  C199  1  0.678990  -0.084010  0.850000  1
  H  H200  1  1.204310  0.632800  0.817900  1
  H  H201  1  1.284710  0.539400  0.815600  1
  H  H202  1  0.690700  0.076600  0.860100  1
  H  H203  1  0.834300  -0.176500  0.850200  1
  C  C204  1  0.478990  -0.272990  0.859200  1
  H  H205  1  0.324900  -0.178390  0.857800  1
  H  H206  1  0.471410  -0.430290  0.848700  1
  C  C207  1  0.504000  -0.369010  0.884100  1
  H  H208  1  0.511190  -0.214300  0.894800  1
  H  H209  1  0.654810  -0.469710  0.885700  1
  C  C210  1  0.292990  -0.550010  0.890960  1
  H  H211  1  0.284800  -0.701190  0.879800  1
  H  H212  1  0.143690  -0.447200  0.889400  1
  C  C213  1  0.307000  -0.663000  0.916260  1
  H  H214  1  0.453500  -0.771500  0.917800  1
  H  H215  1  0.318610  -0.513300  0.927500  1
  C  C216  1  0.095000  -0.833000  0.922370  1
  H  H217  1  -0.049700  -0.723800  0.919800  1
  H  H218  1  0.088610  -0.982390  0.911100  1
  C  C219  1  0.080000  -0.948000  0.946800  1
  H  H220  1  0.074410  -0.798610  0.958100  1
  H  H221  1  0.227900  -1.048700  0.949800  1
  C  C222  1  -0.134010  -1.134000  0.951680  1
  H  H223  1  -0.283100  -1.034200  0.948700  1
  H  H224  1  -0.129200  -1.284800  0.940500  1
  C  C225  1  -0.140010  -1.239990  0.975670  1
  H  H226  1  0.011390  -1.332900  0.978900  1
  H  H227  1  -0.154700  -1.090500  0.986900  1
  C  C228  1  -0.337000  -1.425990  0.979500  1
  H  H229  1  -0.394790  -1.408400  0.995600  1
  H  H230  1  -0.281810  -1.608700  0.976900  1
  H  H231  1  -0.466200  -1.385300  0.968500  1
