# generated using pymatgen
data_H7C11
_symmetry_space_group_name_H-M   'P 1'
_cell_length_a   8.57530000
_cell_length_b   10.89510000
_cell_length_c   10.96280000
_cell_angle_alpha   67.02900000
_cell_angle_beta   87.52100000
_cell_angle_gamma   87.15500000
_symmetry_Int_Tables_number   1
_chemical_formula_structural   H7C11
_chemical_formula_sum   'H14 C22'
_cell_volume   941.54096942
_cell_formula_units_Z   2
loop_
 _symmetry_equiv_pos_site_id
 _symmetry_equiv_pos_as_xyz
  1  'x, y, z'
loop_
 _atom_site_type_symbol
 _atom_site_label
 _atom_site_symmetry_multiplicity
 _atom_site_fract_x
 _atom_site_fract_y
 _atom_site_fract_z
 _atom_site_occupancy
  C  C0  1  0.551000  0.415900  0.932600  1
  C  C1  1  0.401600  0.480500  0.908600  1
  C  C2  1  0.650500  0.433600  1.024800  1
  C  C3  1  0.300200  0.462800  0.819000  1
  C  C4  1  0.349500  0.566400  0.975200  1
  C  C5  1  0.598400  0.519500  1.091400  1
  C  C6  1  0.799300  0.370100  1.051200  1
  C  C7  1  0.154200  0.525600  0.793900  1
  C  C8  1  0.449000  0.584100  1.067400  1
  C  C9  1  0.200700  0.629900  0.948800  1
  C  C10  1  0.699800  0.537200  1.181000  1
  C  C11  1  0.897300  0.388000  1.140300  1
  C  C12  1  0.052100  0.509600  0.701700  1
  C  C13  1  0.102700  0.612000  0.859700  1
  C  C14  1  0.845800  0.474400  1.206100  1
  C  C15  1  1.048900  0.324900  1.167100  1
  C  C16  1  -0.090300  0.571800  0.678500  1
  C  C17  1  -0.048900  0.675100  0.832900  1
  C  C18  1  0.947900  0.490400  1.298300  1
  C  C19  1  1.142800  0.344200  1.254600  1
  C  C20  1  -0.142800  0.655800  0.745400  1
  C  C21  1  1.090300  0.428200  1.321500  1
  H  H22  1  0.591034  0.353351  0.878427  1
  H  H23  1  0.338592  0.397163  0.767733  1
  H  H24  1  0.839064  0.304586  1.000155  1
  H  H25  1  0.408966  0.646649  1.121573  1
  H  H26  1  0.160936  0.695414  0.999845  1
  H  H27  1  0.661408  0.602837  1.232267  1
  H  H28  1  0.090254  0.445460  0.648741  1
  H  H29  1  1.090610  0.259656  1.116294  1
  H  H30  1  -0.166494  0.557527  0.607263  1
  H  H31  1  -0.090610  0.740344  0.883706  1
  H  H32  1  0.909746  0.554540  1.351259  1
  H  H33  1  1.259439  0.294866  1.273624  1
  H  H34  1  -0.259439  0.705134  0.726376  1
  H  H35  1  1.166494  0.442473  1.392737  1
