# generated using pymatgen
data_GeH27C22
_symmetry_space_group_name_H-M   'P 1'
_cell_length_a   7.72830000
_cell_length_b   7.76280012
_cell_length_c   16.88050043
_cell_angle_alpha   78.07699886
_cell_angle_beta   89.22800000
_cell_angle_gamma   81.78800071
_symmetry_Int_Tables_number   1
_chemical_formula_structural   GeH27C22
_chemical_formula_sum   'Ge2 H54 C44'
_cell_volume   980.573350089
_cell_formula_units_Z   2
loop_
 _symmetry_equiv_pos_site_id
 _symmetry_equiv_pos_as_xyz
  1  'x, y, z'
loop_
 _atom_site_type_symbol
 _atom_site_label
 _atom_site_symmetry_multiplicity
 _atom_site_fract_x
 _atom_site_fract_y
 _atom_site_fract_z
 _atom_site_occupancy
  H  H1  1  0.579085  -1.548574  0.132560  1
  H  H2  1  0.704902  -1.416093  0.149839  1
  H  H3  1  0.732361  -1.616453  0.197770  1
  H  H4  1  0.290576  -1.560344  0.258360  1
  H  H5  1  0.443377  -1.703549  0.238586  1
  H  H6  1  0.433949  -1.655692  0.325358  1
  H  H7  1  0.511593  -1.152160  0.346056  1
  H  H8  1  0.665743  -1.201386  0.288328  1
  H  H9  1  0.637826  -1.011758  0.311438  1
  H  H10  1  0.201814  -0.950876  0.242717  1
  H  H11  1  0.324130  -0.899565  0.306127  1
  H  H12  1  0.311326  -0.791740  0.215354  1
  H  H13  1  0.335563  -0.928777  0.021682  1
  H  H14  1  0.498962  -0.987069  0.081749  1
  H  H15  1  0.508571  -1.036728  -0.004736  1
  H  H16  1  0.101122  -1.200816  0.091522  1
  H  H17  1  0.142727  -1.070296  0.010539  1
  H  H18  1  0.172431  -1.278454  0.015727  1
  H  H19  1  -1.148057  -1.205342  0.626719  1
  H  H20  1  -0.974227  -1.284058  0.588262  1
  H  H21  1  -1.003276  -1.082455  0.596594  1
  H  H22  1  -1.393145  -1.180072  0.484905  1
  H  H23  1  -1.370998  -1.121120  0.568179  1
  H  H24  1  -1.389212  -0.977261  0.486218  1
  H  H25  1  -1.064233  -1.765426  0.457898  1
  H  H26  1  -0.919850  -1.640783  0.430195  1
  H  H27  1  -0.903666  -1.771422  0.516147  1
  H  H28  1  -1.349289  -1.486998  0.491797  1
  H  H29  1  -1.286957  -1.694194  0.503286  1
  H  H30  1  -1.302195  -1.603539  0.579462  1
  H  H31  1  -1.353150  -1.051428  0.276345  1
  H  H32  1  -1.181962  -1.031104  0.322099  1
  H  H33  1  -1.166767  -1.121778  0.245968  1
  H  H34  1  -1.505309  -1.282919  0.334738  1
  H  H35  1  -1.428411  -1.413292  0.415289  1
  H  H36  1  -1.458131  -1.205135  0.410101  1
  Ge  Ge37  1  0.368825  -1.235412  0.194007  1
  Ge  Ge38  1  -1.078015  -1.318514  0.440184  1
  C  C39  1  0.136332  -1.248765  0.233565  1
  C  C40  1  -0.845522  -1.305160  0.400626  1
  C  C41  1  -0.009329  -1.257132  0.258349  1
  C  C42  1  -0.699861  -1.296794  0.375842  1
  C  C43  1  -0.527386  -1.286888  0.346496  1
  C  C44  1  -0.497331  -1.254143  0.261825  1
  C  C45  1  -0.384801  -1.311629  0.402378  1
  C  C46  1  -0.637228  -1.227607  0.205311  1
  C  C47  1  -0.324389  -1.242297  0.231812  1
  C  C48  1  -0.211859  -1.299783  0.372366  1
  C  C49  1  -0.410207  -1.348843  0.486341  1
  C  C50  1  -0.610022  -1.192195  0.122798  1
  C  C51  1  -0.181803  -1.267038  0.287695  1
  C  C52  1  -0.298983  -1.205082  0.147850  1
  C  C53  1  -0.071962  -1.326319  0.428880  1
  C  C54  1  -0.271393  -1.375267  0.540676  1
  C  C55  1  -0.752157  -1.163917  0.065606  1
  C  C56  1  -0.437796  -1.178659  0.093514  1
  C  C57  1  -0.099168  -1.361731  0.511393  1
  C  C58  1  -0.294578  -1.414600  0.627011  1
  C  C59  1  -0.722566  -1.126645  -0.015390  1
  C  C60  1  -0.414612  -1.139326  0.007180  1
  C  C61  1  0.042967  -1.390009  0.568585  1
  C  C62  1  -0.155811  -1.439993  0.678260  1
  C  C63  1  -0.553379  -1.113933  -0.044069  1
  C  C64  1  0.013376  -1.427281  0.649581  1
  H  H65  1  -0.751487  -1.234207  0.224304  1
  H  H66  1  -0.523877  -1.355913  0.506028  1
  H  H67  1  -0.185313  -1.198013  0.128163  1
  H  H68  1  0.042297  -1.319719  0.409887  1
  H  H69  1  -0.866653  -1.171253  0.084173  1
  H  H70  1  -0.407194  -1.422637  0.647894  1
  H  H71  1  -0.816621  -1.109315  -0.052299  1
  H  H72  1  -0.301996  -1.131289  -0.013703  1
  H  H73  1  0.157463  -1.382673  0.550018  1
  H  H74  1  -0.173401  -1.466724  0.734368  1
  H  H75  1  -0.535789  -1.087202  -0.100177  1
  H  H76  1  0.107431  -1.444611  0.686490  1
  C  C77  1  -1.240766  -1.287645  0.348741  1
  C  C78  1  -1.085632  -1.554096  0.512352  1
  C  C79  1  -1.147311  -1.125647  0.502486  1
  C  C80  1  0.364594  -1.195438  0.075591  1
  C  C81  1  0.461065  -1.035731  0.228191  1
  C  C82  1  0.523817  -1.464636  0.239405  1
  C  C83  1  -1.424690  -1.298209  0.380035  1
  C  C84  1  -1.235133  -1.106545  0.293238  1
  H  H85  1  -1.206778  -1.382636  0.318036  1
  C  C86  1  -1.272615  -1.587681  0.522640  1
  C  C87  1  -0.984643  -1.695147  0.476006  1
  H  H88  1  -1.033864  -1.555644  0.565860  1
  C  C89  1  -1.342396  -1.098575  0.511231  1
  C  C90  1  -1.060354  -1.179277  0.586087  1
  H  H91  1  -1.109419  -1.013532  0.473108  1
  C  C92  1  0.178482  -1.185330  0.045649  1
  C  C93  1  0.433168  -1.021182  0.040363  1
  H  H94  1  0.439423  -1.294870  0.058042  1
  C  C95  1  0.311289  -0.908152  0.250031  1
  C  C96  1  0.579246  -1.106366  0.299697  1
  H  H97  1  0.526787  -0.972771  0.183238  1
  C  C98  1  0.413216  -1.608836  0.267964  1
  C  C99  1  0.646092  -1.516056  0.173953  1
  H  H100  1  0.593670  -1.449205  0.285507  1
