# generated using pymatgen
data_H7C11
_symmetry_space_group_name_H-M   'P 1'
_cell_length_a   5.28280000
_cell_length_b   22.80600000
_cell_length_c   23.49100000
_cell_angle_alpha   90.00000000
_cell_angle_beta   92.92500000
_cell_angle_gamma   90.00000000
_symmetry_Int_Tables_number   1
_chemical_formula_structural   H7C11
_chemical_formula_sum   'H28 C44'
_cell_volume   2826.49759680
_cell_formula_units_Z   4
loop_
 _symmetry_equiv_pos_site_id
 _symmetry_equiv_pos_as_xyz
  1  'x, y, z'
loop_
 _atom_site_type_symbol
 _atom_site_label
 _atom_site_symmetry_multiplicity
 _atom_site_fract_x
 _atom_site_fract_y
 _atom_site_fract_z
 _atom_site_occupancy
  C  C1  1  0.292800  0.539430  0.496320  1
  C  C2  1  0.395800  0.522050  0.550690  1
  C  C3  1  0.391700  0.518270  0.446010  1
  C  C4  1  0.608300  0.481730  0.553990  1
  C  C5  1  0.295600  0.541050  0.602020  1
  C  C6  1  0.604200  0.477950  0.449310  1
  C  C7  1  0.285700  0.533980  0.391760  1
  C  C8  1  0.707200  0.460570  0.503680  1
  C  C9  1  0.714300  0.466020  0.608240  1
  C  C10  1  0.396900  0.524210  0.654700  1
  C  C11  1  0.704400  0.458950  0.397980  1
  C  C12  1  0.385700  0.513560  0.342090  1
  C  C13  1  0.614300  0.486440  0.657910  1
  C  C14  1  0.293000  0.543100  0.706660  1
  C  C15  1  0.603100  0.475790  0.345300  1
  C  C16  1  0.280300  0.529240  0.286650  1
  C  C17  1  0.719700  0.470760  0.713350  1
  C  C18  1  0.398100  0.526900  0.757500  1
  C  C19  1  0.707000  0.456900  0.293340  1
  C  C20  1  0.382700  0.510000  0.238600  1
  C  C21  1  0.617300  0.490000  0.761400  1
  C  C22  1  0.601900  0.473100  0.242500  1
  C  C23  1  0.207200  0.039430  0.003680  1
  C  C24  1  0.104200  0.022050  -0.050690  1
  C  C25  1  0.108300  0.018270  0.053990  1
  C  C26  1  -0.108300  -0.018270  -0.053990  1
  C  C27  1  0.204400  0.041050  -0.102020  1
  C  C28  1  -0.104200  -0.022050  0.050690  1
  C  C29  1  0.214300  0.033980  0.108240  1
  C  C30  1  -0.207200  -0.039430  -0.003680  1
  C  C31  1  -0.214300  -0.033980  -0.108240  1
  C  C32  1  0.103100  0.024210  -0.154700  1
  C  C33  1  -0.204400  -0.041050  0.102020  1
  C  C34  1  0.114300  0.013560  0.157910  1
  C  C35  1  -0.114300  -0.013560  -0.157910  1
  C  C36  1  0.207000  0.043100  -0.206660  1
  C  C37  1  -0.103100  -0.024210  0.154700  1
  C  C38  1  0.219700  0.029240  0.213350  1
  C  C39  1  -0.219700  -0.029240  -0.213350  1
  C  C40  1  0.101900  0.026900  -0.257500  1
  C  C41  1  -0.207000  -0.043100  0.206660  1
  C  C42  1  0.117300  0.010000  0.261400  1
  C  C43  1  -0.117300  -0.010000  -0.261400  1
  C  C44  1  -0.101900  -0.026900  0.257500  1
  H  H45  1  0.132054  0.570114  0.493088  1
  H  H46  1  0.130336  0.570445  0.600913  1
  H  H47  1  0.119677  0.563098  0.388069  1
  H  H48  1  0.867946  0.429886  0.506912  1
  H  H49  1  0.880323  0.436902  0.611931  1
  H  H50  1  0.869664  0.429555  0.399087  1
  H  H51  1  0.124571  0.571378  0.707563  1
  H  H52  1  0.112245  0.557481  0.280673  1
  H  H53  1  0.887755  0.442519  0.719327  1
  H  H54  1  0.306316  0.543552  0.795260  1
  H  H55  1  0.875429  0.428622  0.292437  1
  H  H56  1  0.290820  0.523892  0.197734  1
  H  H57  1  0.709180  0.476108  0.802266  1
  H  H58  1  0.693684  0.456448  0.204740  1
  H  H59  1  0.367946  0.070114  0.006912  1
  H  H60  1  0.369664  0.070445  -0.100913  1
  H  H61  1  0.380323  0.063098  0.111931  1
  H  H62  1  -0.367946  -0.070114  -0.006912  1
  H  H63  1  -0.380323  -0.063098  -0.111931  1
  H  H64  1  -0.369664  -0.070445  0.100913  1
  H  H65  1  0.375429  0.071378  -0.207563  1
  H  H66  1  0.387755  0.057481  0.219327  1
  H  H67  1  -0.387755  -0.057481  -0.219327  1
  H  H68  1  0.193684  0.043552  -0.295260  1
  H  H69  1  -0.375429  -0.071378  0.207563  1
  H  H70  1  0.209180  0.023892  0.302266  1
  H  H71  1  -0.209180  -0.023892  -0.302266  1
  H  H72  1  -0.193684  -0.043552  0.295260  1
