# generated using pymatgen
data_H5C9S
_symmetry_space_group_name_H-M   'P 1'
_cell_length_a   7.35380000
_cell_length_b   10.34750000
_cell_length_c   11.16810000
_cell_angle_alpha   94.80900000
_cell_angle_beta   90.20000000
_cell_angle_gamma   98.76200000
_symmetry_Int_Tables_number   1
_chemical_formula_structural   H5C9S
_chemical_formula_sum   'H10 C18 S2'
_cell_volume   836.83070650
_cell_formula_units_Z   2
loop_
 _symmetry_equiv_pos_site_id
 _symmetry_equiv_pos_as_xyz
  1  'x, y, z'
loop_
 _atom_site_type_symbol
 _atom_site_label
 _atom_site_symmetry_multiplicity
 _atom_site_fract_x
 _atom_site_fract_y
 _atom_site_fract_z
 _atom_site_occupancy
  C  C1  1  0.586600  0.641500  0.101500  1
  C  C2  1  0.632200  0.709900  -0.004000  1
  C  C3  1  0.689200  0.551200  0.135900  1
  C  C4  1  0.501200  0.796600  -0.013000  1
  C  C5  1  0.780600  0.685800  -0.070800  1
  C  C6  1  0.375000  0.799000  0.075000  1
  C  C7  1  0.843100  0.524400  0.068600  1
  C  C8  1  0.891500  0.593500  -0.036700  1
  C  C9  1  0.953400  0.432300  0.103100  1
  C  C10  1  1.046600  0.567700  -0.103100  1
  C  C11  1  1.108500  0.406500  0.036700  1
  C  C12  1  1.156900  0.475600  -0.068600  1
  C  C13  1  1.219400  0.314200  0.070800  1
  C  C14  1  1.310800  0.448800  -0.135900  1
  C  C15  1  1.367800  0.290100  0.004000  1
  C  C16  1  1.413400  0.358500  -0.101500  1
  C  C17  1  1.498800  0.203400  0.013000  1
  C  C18  1  1.625000  0.201000  -0.075000  1
  H  H19  1  0.648440  0.500747  0.216705  1
  H  H20  1  0.497559  0.860540  -0.086573  1
  H  H21  1  0.810369  0.739940  -0.150898  1
  H  H22  1  0.283204  0.871781  0.063461  1
  H  H23  1  0.917764  0.379562  0.183360  1
  H  H24  1  1.082236  0.620438  -0.183360  1
  H  H25  1  1.189631  0.260060  0.150898  1
  H  H26  1  1.351560  0.499253  -0.216705  1
  H  H27  1  1.502441  0.139460  0.086573  1
  H  H28  1  1.716796  0.128219  -0.063461  1
  S  S29  1  0.394300  0.686040  0.181290  1
  S  S30  1  1.605700  0.313960  -0.181290  1
