# generated using pymatgen
data_H7C13S
_symmetry_space_group_name_H-M   'P 1'
_cell_length_a   9.01850000
_cell_length_b   11.14980000
_cell_length_c   13.69600000
_cell_angle_alpha   84.06200000
_cell_angle_beta   89.31600000
_cell_angle_gamma   81.54100000
_symmetry_Int_Tables_number   1
_chemical_formula_structural   H7C13S
_chemical_formula_sum   'H14 C26 S2'
_cell_volume   1354.89548492
_cell_formula_units_Z   2
loop_
 _symmetry_equiv_pos_site_id
 _symmetry_equiv_pos_as_xyz
  1  'x, y, z'
loop_
 _atom_site_type_symbol
 _atom_site_label
 _atom_site_symmetry_multiplicity
 _atom_site_fract_x
 _atom_site_fract_y
 _atom_site_fract_z
 _atom_site_occupancy
  C  C1  1  0.104000  0.654300  0.373100  1
  C  C2  1  0.101800  0.565900  0.303500  1
  C  C3  1  -0.010700  0.676400  0.436900  1
  C  C4  1  0.233000  0.553000  0.243800  1
  C  C5  1  -0.015900  0.502400  0.300900  1
  C  C6  1  0.325500  0.631300  0.264300  1
  C  C7  1  -0.135100  0.612200  0.436200  1
  C  C8  1  -0.137800  0.523000  0.366600  1
  C  C9  1  -0.254900  0.632100  0.500100  1
  C  C10  1  -0.259300  0.459300  0.367100  1
  C  C11  1  -0.377800  0.568500  0.501000  1
  C  C12  1  -0.379500  0.478100  0.432300  1
  C  C13  1  -0.498600  0.588900  0.567000  1
  C  C14  1  -0.501400  0.411100  0.433000  1
  C  C15  1  -0.620500  0.521900  0.567700  1
  C  C16  1  -0.622200  0.431500  0.499000  1
  C  C17  1  -0.740700  0.540700  0.632900  1
  C  C18  1  -0.745100  0.367900  0.499900  1
  C  C19  1  -0.862200  0.477000  0.633400  1
  C  C20  1  -0.864900  0.387800  0.563800  1
  C  C21  1  -0.984100  0.497600  0.699100  1
  C  C22  1  -0.989300  0.323600  0.563100  1
  C  C23  1  -1.101800  0.434100  0.696500  1
  C  C24  1  -1.104000  0.345700  0.626900  1
  C  C25  1  -1.233000  0.447000  0.756200  1
  C  C26  1  -1.325500  0.368700  0.735700  1
  H  H27  1  -0.002992  0.744974  0.488152  1
  H  H28  1  0.260033  0.489295  0.187779  1
  H  H29  1  -0.012571  0.435740  0.246763  1
  H  H30  1  0.425090  0.622128  0.216977  1
  H  H31  1  -0.252349  0.700819  0.551948  1
  H  H32  1  -0.260365  0.391726  0.314106  1
  H  H33  1  -0.497730  0.658050  0.618665  1
  H  H34  1  -0.502270  0.341950  0.381335  1
  H  H35  1  -0.739635  0.608274  0.685894  1
  H  H36  1  -0.747651  0.299181  0.448052  1
  H  H37  1  -0.987429  0.564260  0.753237  1
  H  H38  1  -0.997008  0.255026  0.511848  1
  H  H39  1  -1.260033  0.510705  0.812221  1
  H  H40  1  -1.425090  0.377872  0.783023  1
  S  S41  1  0.264900  0.723700  0.357550  1
  S  S42  1  -1.264900  0.276300  0.642450  1
