# generated using pymatgen
data_H5C7
_symmetry_space_group_name_H-M   'P 1'
_cell_length_a   13.96470000
_cell_length_b   19.61480000
_cell_length_c   14.10890000
_cell_angle_alpha   90.00000000
_cell_angle_beta   95.98270000
_cell_angle_gamma   90.00000000
_symmetry_Int_Tables_number   1
_chemical_formula_structural   H5C7
_chemical_formula_sum   'H40 C56'
_cell_volume   3843.58740289
_cell_formula_units_Z   8
loop_
 _symmetry_equiv_pos_site_id
 _symmetry_equiv_pos_as_xyz
  1  'x, y, z'
loop_
 _atom_site_type_symbol
 _atom_site_label
 _atom_site_symmetry_multiplicity
 _atom_site_fract_x
 _atom_site_fract_y
 _atom_site_fract_z
 _atom_site_occupancy
  C  C1  1  0.253700  0.094460  0.485100  1
  C  C2  1  0.167600  0.070400  0.435200  1
  C  C3  1  0.343500  0.079250  0.452700  1
  C  C4  1  0.171800  0.028810  0.351800  1
  C  C5  1  0.077400  0.087500  0.463800  1
  C  C6  1  0.347400  0.037910  0.368900  1
  C  C7  1  0.431000  0.104510  0.499300  1
  C  C8  1  0.261600  0.011720  0.321300  1
  C  C9  1  0.082700  0.007200  0.301900  1
  C  C10  1  -0.006500  0.067300  0.413100  1
  C  C11  1  0.438300  0.025900  0.335400  1
  C  C12  1  0.516100  0.092600  0.465600  1
  C  C13  1  -0.003100  0.026400  0.330600  1
  C  C14  1  0.520000  0.053500  0.380700  1
  C  C15  1  -0.253700  -0.405540  0.014900  1
  C  C16  1  -0.167600  -0.429600  0.064800  1
  C  C17  1  -0.343500  -0.420750  0.047300  1
  C  C18  1  -0.171800  -0.471190  0.148200  1
  C  C19  1  -0.077400  -0.412500  0.036200  1
  C  C20  1  -0.347400  -0.462090  0.131100  1
  C  C21  1  -0.431000  -0.395490  0.000700  1
  C  C22  1  -0.261600  -0.488280  0.178700  1
  C  C23  1  -0.082700  -0.492800  0.198100  1
  C  C24  1  0.006500  -0.432700  0.086900  1
  C  C25  1  -0.438300  -0.474100  0.164600  1
  C  C26  1  -0.516100  -0.407400  0.034400  1
  C  C27  1  0.003100  -0.473600  0.169400  1
  C  C28  1  -0.520000  -0.446500  0.119300  1
  C  C29  1  0.746300  -0.094460  0.514900  1
  C  C30  1  0.832400  -0.070400  0.564800  1
  C  C31  1  0.656500  -0.079250  0.547300  1
  C  C32  1  0.828200  -0.028810  0.648200  1
  C  C33  1  0.922600  -0.087500  0.536200  1
  C  C34  1  0.652600  -0.037910  0.631100  1
  C  C35  1  0.569000  -0.104510  0.500700  1
  C  C36  1  0.738400  -0.011720  0.678700  1
  C  C37  1  0.917300  -0.007200  0.698100  1
  C  C38  1  1.006500  -0.067300  0.586900  1
  C  C39  1  0.561700  -0.025900  0.664600  1
  C  C40  1  0.483900  -0.092600  0.534400  1
  C  C41  1  1.003100  -0.026400  0.669400  1
  C  C42  1  0.480000  -0.053500  0.619300  1
  C  C43  1  0.253700  0.405540  0.985100  1
  C  C44  1  0.167600  0.429600  0.935200  1
  C  C45  1  0.343500  0.420750  0.952700  1
  C  C46  1  0.171800  0.471190  0.851800  1
  C  C47  1  0.077400  0.412500  0.963800  1
  C  C48  1  0.347400  0.462090  0.868900  1
  C  C49  1  0.431000  0.395490  0.999300  1
  C  C50  1  0.261600  0.488280  0.821300  1
  C  C51  1  0.082700  0.492800  0.801900  1
  C  C52  1  -0.006500  0.432700  0.913100  1
  C  C53  1  0.438300  0.474100  0.835400  1
  C  C54  1  0.516100  0.407400  0.965600  1
  C  C55  1  -0.003100  0.473600  0.830600  1
  C  C56  1  0.520000  0.446500  0.880700  1
  H  H57  1  0.250790  0.125340  0.549817  1
  H  H58  1  0.072257  0.117952  0.528542  1
  H  H59  1  0.432963  0.134915  0.564985  1
  H  H60  1  0.264750  -0.022366  0.259792  1
  H  H61  1  0.080040  -0.025698  0.238539  1
  H  H62  1  -0.074981  0.083538  0.438045  1
  H  H63  1  0.445669  -0.005827  0.272282  1
  H  H64  1  0.580539  0.114178  0.506232  1
  H  H65  1  -0.068868  0.009080  0.287659  1
  H  H66  1  0.587757  0.044397  0.349355  1
  H  H67  1  -0.250790  -0.374660  -0.049817  1
  H  H68  1  -0.072257  -0.382048  -0.028542  1
  H  H69  1  -0.432963  -0.365085  -0.064985  1
  H  H70  1  -0.264750  -0.522366  0.240208  1
  H  H71  1  -0.080040  -0.525698  0.261461  1
  H  H72  1  0.074981  -0.416462  0.061955  1
  H  H73  1  -0.445669  -0.505827  0.227718  1
  H  H74  1  -0.580539  -0.385822  -0.006232  1
  H  H75  1  0.068868  -0.490920  0.212341  1
  H  H76  1  -0.587757  -0.455603  0.150645  1
  H  H77  1  0.749210  -0.125340  0.450183  1
  H  H78  1  0.927743  -0.117952  0.471458  1
  H  H79  1  0.567037  -0.134915  0.435015  1
  H  H80  1  0.735250  0.022366  0.740208  1
  H  H81  1  0.919960  0.025698  0.761461  1
  H  H82  1  1.074981  -0.083538  0.561955  1
  H  H83  1  0.554331  0.005827  0.727718  1
  H  H84  1  0.419461  -0.114178  0.493768  1
  H  H85  1  1.068868  -0.009080  0.712341  1
  H  H86  1  0.412243  -0.044397  0.650645  1
  H  H87  1  0.250790  0.374660  1.049817  1
  H  H88  1  0.072257  0.382048  1.028542  1
  H  H89  1  0.432963  0.365085  1.064985  1
  H  H90  1  0.264750  0.522366  0.759792  1
  H  H91  1  0.080040  0.525698  0.738539  1
  H  H92  1  -0.074981  0.416462  0.938045  1
  H  H93  1  0.445669  0.505827  0.772282  1
  H  H94  1  0.580539  0.385822  1.006232  1
  H  H95  1  -0.068868  0.490920  0.787659  1
  H  H96  1  0.587757  0.455603  0.849355  1
