# generated using pymatgen
data_H5C9S
_symmetry_space_group_name_H-M   'P 1'
_cell_length_a   8.91240000
_cell_length_b   10.43340000
_cell_length_c   11.56400000
_cell_angle_alpha   109.77170000
_cell_angle_beta   94.75990000
_cell_angle_gamma   93.02080000
_symmetry_Int_Tables_number   1
_chemical_formula_structural   H5C9S
_chemical_formula_sum   'H10 C18 S2'
_cell_volume   1004.66962201
_cell_formula_units_Z   2
loop_
 _symmetry_equiv_pos_site_id
 _symmetry_equiv_pos_as_xyz
  1  'x, y, z'
loop_
 _atom_site_type_symbol
 _atom_site_label
 _atom_site_symmetry_multiplicity
 _atom_site_fract_x
 _atom_site_fract_y
 _atom_site_fract_z
 _atom_site_occupancy
  C  C1  1  0.140300  0.607500  0.628900  1
  C  C2  1  0.180200  0.512800  0.689500  1
  C  C3  1  0.228000  0.632200  0.545600  1
  C  C4  1  0.073000  0.514600  0.777000  1
  C  C5  1  0.307300  0.444800  0.664700  1
  C  C6  1  -0.037600  0.598200  0.778800  1
  C  C7  1  0.363000  0.565800  0.521100  1
  C  C8  1  0.402700  0.469900  0.581000  1
  C  C9  1  0.460500  0.595000  0.441900  1
  C  C10  1  0.539500  0.405000  0.558100  1
  C  C11  1  0.597300  0.530100  0.419000  1
  C  C12  1  0.637000  0.434200  0.478900  1
  C  C13  1  0.692700  0.555200  0.335300  1
  C  C14  1  0.772000  0.367800  0.454400  1
  C  C15  1  0.819800  0.487200  0.310500  1
  C  C16  1  0.859700  0.392500  0.371100  1
  C  C17  1  0.927000  0.485400  0.223000  1
  C  C18  1  1.037600  0.401800  0.221200  1
  H  H19  1  0.190981  0.703499  0.499580  1
  H  H20  1  0.075476  0.455028  0.839412  1
  H  H21  1  0.332388  0.371119  0.711314  1
  H  H22  1  -0.116466  0.594963  0.846256  1
  H  H23  1  0.429473  0.669291  0.397452  1
  H  H24  1  0.570527  0.330709  0.602548  1
  H  H25  1  0.667612  0.628881  0.288686  1
  H  H26  1  0.809019  0.296501  0.500420  1
  H  H27  1  0.924524  0.544972  0.160588  1
  H  H28  1  1.116466  0.405037  0.153744  1
  S  S29  1  -0.024680  0.686870  0.674950  1
  S  S30  1  1.024680  0.313130  0.325050  1
