# generated using pymatgen
data_H7C11
_symmetry_space_group_name_H-M   'P 1'
_cell_length_a   34.85000000
_cell_length_b   18.37040000
_cell_length_c   15.16240000
_cell_angle_alpha   90.00000000
_cell_angle_beta   98.20100000
_cell_angle_gamma   90.00000000
_symmetry_Int_Tables_number   1
_chemical_formula_structural   H7C11
_chemical_formula_sum   'H112 C176'
_cell_volume   9607.82917222
_cell_formula_units_Z   16
loop_
 _symmetry_equiv_pos_site_id
 _symmetry_equiv_pos_as_xyz
  1  'x, y, z'
loop_
 _atom_site_type_symbol
 _atom_site_label
 _atom_site_symmetry_multiplicity
 _atom_site_fract_x
 _atom_site_fract_y
 _atom_site_fract_z
 _atom_site_occupancy
  C  C1  1  0.038230  0.006300  0.480200  1
  C  C2  1  0.022100  -0.063600  0.489300  1
  C  C3  1  0.016780  0.069400  0.490700  1
  C  C4  1  -0.016780  -0.069400  0.509300  1
  C  C5  1  0.042880  -0.127300  0.478300  1
  C  C6  1  -0.022100  0.063600  0.510700  1
  C  C7  1  0.032300  0.139000  0.481800  1
  C  C8  1  -0.038230  -0.006300  0.519800  1
  C  C9  1  -0.032300  -0.139000  0.518200  1
  C  C10  1  0.027080  -0.195500  0.487000  1
  C  C11  1  -0.042880  0.127300  0.521700  1
  C  C12  1  0.011540  0.202000  0.492100  1
  C  C13  1  -0.011540  -0.202000  0.507900  1
  C  C14  1  0.047690  -0.261100  0.476100  1
  C  C15  1  -0.027080  0.195500  0.513000  1
  C  C16  1  0.026970  0.272100  0.482800  1
  C  C17  1  -0.026970  -0.272100  0.517200  1
  C  C18  1  0.032110  -0.327900  0.484500  1
  C  C19  1  -0.047690  0.261100  0.523900  1
  C  C20  1  0.006710  0.333800  0.493900  1
  C  C21  1  -0.006710  -0.333800  0.506100  1
  C  C22  1  -0.032110  0.327900  0.515500  1
  C  C23  1  -0.038230  0.006300  0.019800  1
  C  C24  1  -0.022100  -0.063600  0.010700  1
  C  C25  1  -0.016780  0.069400  0.009300  1
  C  C26  1  0.016780  -0.069400  -0.009300  1
  C  C27  1  -0.042880  -0.127300  0.021700  1
  C  C28  1  0.022100  0.063600  -0.010700  1
  C  C29  1  -0.032300  0.139000  0.018200  1
  C  C30  1  0.038230  -0.006300  -0.019800  1
  C  C31  1  0.032300  -0.139000  -0.018200  1
  C  C32  1  -0.027080  -0.195500  0.013000  1
  C  C33  1  0.042880  0.127300  -0.021700  1
  C  C34  1  -0.011540  0.202000  0.007900  1
  C  C35  1  0.011540  -0.202000  -0.007900  1
  C  C36  1  -0.047690  -0.261100  0.023900  1
  C  C37  1  0.027080  0.195500  -0.013000  1
  C  C38  1  -0.026970  0.272100  0.017200  1
  C  C39  1  0.026970  -0.272100  -0.017200  1
  C  C40  1  -0.032110  -0.327900  0.015500  1
  C  C41  1  0.047690  0.261100  -0.023900  1
  C  C42  1  -0.006710  0.333800  0.006100  1
  C  C43  1  0.006710  -0.333800  -0.006100  1
  C  C44  1  0.032110  0.327900  -0.015500  1
  C  C45  1  0.538230  -0.493700  0.480200  1
  C  C46  1  0.522100  -0.563600  0.489300  1
  C  C47  1  0.516780  -0.430600  0.490700  1
  C  C48  1  0.483220  -0.569400  0.509300  1
  C  C49  1  0.542880  -0.627300  0.478300  1
  C  C50  1  0.477900  -0.436400  0.510700  1
  C  C51  1  0.532300  -0.361000  0.481800  1
  C  C52  1  0.461770  -0.506300  0.519800  1
  C  C53  1  0.467700  -0.639000  0.518200  1
  C  C54  1  0.527080  -0.695500  0.487000  1
  C  C55  1  0.457120  -0.372700  0.521700  1
  C  C56  1  0.511540  -0.298000  0.492100  1
  C  C57  1  0.488460  -0.702000  0.507900  1
  C  C58  1  0.547690  -0.761100  0.476100  1
  C  C59  1  0.472920  -0.304500  0.513000  1
  C  C60  1  0.526970  -0.227900  0.482800  1
  C  C61  1  0.473030  -0.772100  0.517200  1
  C  C62  1  0.532110  -0.827900  0.484500  1
  C  C63  1  0.452310  -0.238900  0.523900  1
  C  C64  1  0.506710  -0.166200  0.493900  1
  C  C65  1  0.493290  -0.833800  0.506100  1
  C  C66  1  0.467890  -0.172100  0.515500  1
  C  C67  1  0.461770  -0.493700  1.019800  1
  C  C68  1  0.477900  -0.563600  1.010700  1
  C  C69  1  0.483220  -0.430600  1.009300  1
  C  C70  1  0.516780  -0.569400  0.990700  1
  C  C71  1  0.457120  -0.627300  1.021700  1
  C  C72  1  0.522100  -0.436400  0.989300  1
  C  C73  1  0.467700  -0.361000  1.018200  1
  C  C74  1  0.538230  -0.506300  0.980200  1
  C  C75  1  0.532300  -0.639000  0.981800  1
  C  C76  1  0.472920  -0.695500  1.013000  1
  C  C77  1  0.542880  -0.372700  0.978300  1
  C  C78  1  0.488460  -0.298000  1.007900  1
  C  C79  1  0.511540  -0.702000  0.992100  1
  C  C80  1  0.452310  -0.761100  1.023900  1
  C  C81  1  0.527080  -0.304500  0.987000  1
  C  C82  1  0.473030  -0.227900  1.017200  1
  C  C83  1  0.526970  -0.772100  0.982800  1
  C  C84  1  0.467890  -0.827900  1.015500  1
  C  C85  1  0.547690  -0.238900  0.976100  1
  C  C86  1  0.493290  -0.166200  1.006100  1
  C  C87  1  0.506710  -0.833800  0.993900  1
  C  C88  1  0.532110  -0.172100  0.984500  1
  C  C89  1  0.038130  0.439600  0.728200  1
  C  C90  1  0.019510  0.506100  0.739400  1
  C  C91  1  0.019300  0.372900  0.738200  1
  C  C92  1  -0.019510  0.506100  0.760600  1
  C  C93  1  0.037490  0.572900  0.729000  1
  C  C94  1  -0.019300  0.372900  0.761800  1
  C  C95  1  0.036960  0.305900  0.725500  1
  C  C96  1  -0.038130  0.439600  0.771800  1
  C  C97  1  -0.037490  0.572900  0.771000  1
  C  C98  1  0.019310  0.638600  0.739200  1
  C  C99  1  -0.036960  0.305900  0.774500  1
  C  C100  1  0.018990  0.240800  0.736600  1
  C  C101  1  -0.019310  0.638600  0.760800  1
  C  C102  1  0.037450  0.706600  0.729800  1
  C  C103  1  -0.018990  0.240800  0.763400  1
  C  C104  1  0.036260  0.172700  0.722600  1
  C  C105  1  -0.037450  0.706600  0.770200  1
  C  C106  1  0.019540  0.770700  0.739900  1
  C  C107  1  -0.036260  0.172700  0.777400  1
  C  C108  1  0.018840  0.108500  0.735300  1
  C  C109  1  -0.019540  0.770700  0.760100  1
  C  C110  1  -0.018840  0.108500  0.764700  1
  C  C111  1  0.538130  -0.060400  0.728200  1
  C  C112  1  0.519510  0.006100  0.739400  1
  C  C113  1  0.519300  -0.127100  0.738200  1
  C  C114  1  0.480490  0.006100  0.760600  1
  C  C115  1  0.537490  0.072900  0.729000  1
  C  C116  1  0.480700  -0.127100  0.761800  1
  C  C117  1  0.536960  -0.194100  0.725500  1
  C  C118  1  0.461870  -0.060400  0.771800  1
  C  C119  1  0.462510  0.072900  0.771000  1
  C  C120  1  0.519310  0.138600  0.739200  1
  C  C121  1  0.463040  -0.194100  0.774500  1
  C  C122  1  0.518990  -0.259200  0.736600  1
  C  C123  1  0.480690  0.138600  0.760800  1
  C  C124  1  0.537450  0.206600  0.729800  1
  C  C125  1  0.481010  -0.259200  0.763400  1
  C  C126  1  0.536260  -0.327300  0.722600  1
  C  C127  1  0.462550  0.206600  0.770200  1
  C  C128  1  0.519540  0.270700  0.739900  1
  C  C129  1  0.463740  -0.327300  0.777400  1
  C  C130  1  0.518840  -0.391500  0.735300  1
  C  C131  1  0.480460  0.270700  0.760100  1
  C  C132  1  0.481160  -0.391500  0.764700  1
  C  C133  1  -0.038130  -0.439600  0.271800  1
  C  C134  1  -0.019510  -0.506100  0.260600  1
  C  C135  1  -0.019300  -0.372900  0.261800  1
  C  C136  1  0.019510  -0.506100  0.239400  1
  C  C137  1  -0.037490  -0.572900  0.271000  1
  C  C138  1  0.019300  -0.372900  0.238200  1
  C  C139  1  -0.036960  -0.305900  0.274500  1
  C  C140  1  0.038130  -0.439600  0.228200  1
  C  C141  1  0.037490  -0.572900  0.229000  1
  C  C142  1  -0.019310  -0.638600  0.260800  1
  C  C143  1  0.036960  -0.305900  0.225500  1
  C  C144  1  -0.018990  -0.240800  0.263400  1
  C  C145  1  0.019310  -0.638600  0.239200  1
  C  C146  1  -0.037450  -0.706600  0.270200  1
  C  C147  1  0.018990  -0.240800  0.236600  1
  C  C148  1  -0.036260  -0.172700  0.277400  1
  C  C149  1  0.037450  -0.706600  0.229800  1
  C  C150  1  -0.019540  -0.770700  0.260100  1
  C  C151  1  0.036260  -0.172700  0.222600  1
  C  C152  1  -0.018840  -0.108500  0.264700  1
  C  C153  1  0.019540  -0.770700  0.239900  1
  C  C154  1  0.018840  -0.108500  0.235300  1
  C  C155  1  -0.538130  0.060400  0.271800  1
  C  C156  1  -0.519510  -0.006100  0.260600  1
  C  C157  1  -0.519300  0.127100  0.261800  1
  C  C158  1  -0.480490  -0.006100  0.239400  1
  C  C159  1  -0.537490  -0.072900  0.271000  1
  C  C160  1  -0.480700  0.127100  0.238200  1
  C  C161  1  -0.536960  0.194100  0.274500  1
  C  C162  1  -0.461870  0.060400  0.228200  1
  C  C163  1  -0.462510  -0.072900  0.229000  1
  C  C164  1  -0.519310  -0.138600  0.260800  1
  C  C165  1  -0.463040  0.194100  0.225500  1
  C  C166  1  -0.518990  0.259200  0.263400  1
  C  C167  1  -0.480690  -0.138600  0.239200  1
  C  C168  1  -0.537450  -0.206600  0.270200  1
  C  C169  1  -0.481010  0.259200  0.236600  1
  C  C170  1  -0.536260  0.327300  0.277400  1
  C  C171  1  -0.462550  -0.206600  0.229800  1
  C  C172  1  -0.519540  -0.270700  0.260100  1
  C  C173  1  -0.463740  0.327300  0.222600  1
  C  C174  1  -0.518840  0.391500  0.264700  1
  C  C175  1  -0.480460  -0.270700  0.239900  1
  C  C176  1  -0.481160  0.391500  0.235300  1
  H  H177  1  0.067984  0.011684  0.464681  1
  H  H178  1  0.072626  -0.123641  0.462280  1
  H  H179  1  0.062020  0.144407  0.466071  1
  H  H180  1  -0.067984  -0.011684  0.535319  1
  H  H181  1  -0.062020  -0.144407  0.533929  1
  H  H182  1  -0.072626  0.123641  0.537720  1
  H  H183  1  0.077511  -0.260111  0.460197  1
  H  H184  1  0.056427  0.279033  0.465963  1
  H  H185  1  -0.056427  -0.279033  0.534037  1
  H  H186  1  0.050214  -0.375342  0.474217  1
  H  H187  1  -0.077511  0.260111  0.539803  1
  H  H188  1  0.021092  0.386181  0.485764  1
  H  H189  1  -0.021092  -0.386181  0.514236  1
  H  H190  1  -0.050214  0.375342  0.525783  1
  H  H191  1  -0.067984  0.011684  0.035319  1
  H  H192  1  -0.072626  -0.123641  0.037720  1
  H  H193  1  -0.062020  0.144407  0.033929  1
  H  H194  1  0.067984  -0.011684  -0.035319  1
  H  H195  1  0.062020  -0.144407  -0.033929  1
  H  H196  1  0.072626  0.123641  -0.037720  1
  H  H197  1  -0.077511  -0.260111  0.039803  1
  H  H198  1  -0.056427  0.279033  0.034037  1
  H  H199  1  0.056427  -0.279033  -0.034037  1
  H  H200  1  -0.050214  -0.375342  0.025783  1
  H  H201  1  0.077511  0.260111  -0.039803  1
  H  H202  1  -0.021092  0.386181  0.014236  1
  H  H203  1  0.021092  -0.386181  -0.014236  1
  H  H204  1  0.050214  0.375342  -0.025783  1
  H  H205  1  0.567984  -0.488316  0.464681  1
  H  H206  1  0.572626  -0.623641  0.462280  1
  H  H207  1  0.562020  -0.355593  0.466071  1
  H  H208  1  0.432016  -0.511684  0.535319  1
  H  H209  1  0.437980  -0.644407  0.533929  1
  H  H210  1  0.427374  -0.376359  0.537720  1
  H  H211  1  0.577511  -0.760111  0.460197  1
  H  H212  1  0.556427  -0.220967  0.465963  1
  H  H213  1  0.443573  -0.779033  0.534037  1
  H  H214  1  0.550214  -0.875342  0.474217  1
  H  H215  1  0.422489  -0.239889  0.539803  1
  H  H216  1  0.521092  -0.113819  0.485764  1
  H  H217  1  0.478908  -0.886181  0.514236  1
  H  H218  1  0.449786  -0.124658  0.525783  1
  H  H219  1  0.432016  -0.488316  1.035319  1
  H  H220  1  0.427374  -0.623641  1.037720  1
  H  H221  1  0.437980  -0.355593  1.033929  1
  H  H222  1  0.567984  -0.511684  0.964681  1
  H  H223  1  0.562020  -0.644407  0.966071  1
  H  H224  1  0.572626  -0.376359  0.962280  1
  H  H225  1  0.422489  -0.760111  1.039803  1
  H  H226  1  0.443573  -0.220967  1.034037  1
  H  H227  1  0.556427  -0.779033  0.965963  1
  H  H228  1  0.449786  -0.875342  1.025783  1
  H  H229  1  0.577511  -0.239889  0.960197  1
  H  H230  1  0.478908  -0.113819  1.014236  1
  H  H231  1  0.521092  -0.886181  0.985764  1
  H  H232  1  0.550214  -0.124658  0.974217  1
  H  H233  1  0.067811  0.439759  0.711398  1
  H  H234  1  0.067151  0.573802  0.712102  1
  H  H235  1  0.066164  0.304343  0.705993  1
  H  H236  1  -0.067811  0.439759  0.788602  1
  H  H237  1  -0.067151  0.573802  0.787898  1
  H  H238  1  -0.066164  0.304343  0.794007  1
  H  H239  1  0.067198  0.709818  0.713709  1
  H  H240  1  0.064940  0.169476  0.700525  1
  H  H241  1  -0.067198  0.709818  0.786291  1
  H  H242  1  0.036062  0.820726  0.732018  1
  H  H243  1  -0.064940  0.169476  0.799475  1
  H  H244  1  0.034581  0.058621  0.722325  1
  H  H245  1  -0.036062  0.820726  0.767982  1
  H  H246  1  -0.034581  0.058621  0.777675  1
  H  H247  1  0.567811  -0.060241  0.711398  1
  H  H248  1  0.567151  0.073802  0.712102  1
  H  H249  1  0.566164  -0.195657  0.705993  1
  H  H250  1  0.432189  -0.060241  0.788602  1
  H  H251  1  0.432849  0.073802  0.787898  1
  H  H252  1  0.433836  -0.195657  0.794007  1
  H  H253  1  0.567198  0.209818  0.713709  1
  H  H254  1  0.564940  -0.330524  0.700525  1
  H  H255  1  0.432802  0.209818  0.786291  1
  H  H256  1  0.536062  0.320726  0.732018  1
  H  H257  1  0.435060  -0.330524  0.799475  1
  H  H258  1  0.534581  -0.441379  0.722325  1
  H  H259  1  0.463938  0.320726  0.767982  1
  H  H260  1  0.465419  -0.441379  0.777675  1
  H  H261  1  -0.067811  -0.439759  0.288602  1
  H  H262  1  -0.067151  -0.573802  0.287898  1
  H  H263  1  -0.066164  -0.304343  0.294007  1
  H  H264  1  0.067811  -0.439759  0.211398  1
  H  H265  1  0.067151  -0.573802  0.212102  1
  H  H266  1  0.066164  -0.304343  0.205993  1
  H  H267  1  -0.067198  -0.709818  0.286291  1
  H  H268  1  -0.064940  -0.169476  0.299475  1
  H  H269  1  0.067198  -0.709818  0.213709  1
  H  H270  1  -0.036062  -0.820726  0.267982  1
  H  H271  1  0.064940  -0.169476  0.200525  1
  H  H272  1  -0.034581  -0.058621  0.277675  1
  H  H273  1  0.036062  -0.820726  0.232018  1
  H  H274  1  0.034581  -0.058621  0.222325  1
  H  H275  1  -0.567811  0.060241  0.288602  1
  H  H276  1  -0.567151  -0.073802  0.287898  1
  H  H277  1  -0.566164  0.195657  0.294007  1
  H  H278  1  -0.432189  0.060241  0.211398  1
  H  H279  1  -0.432849  -0.073802  0.212102  1
  H  H280  1  -0.433836  0.195657  0.205993  1
  H  H281  1  -0.567198  -0.209818  0.286291  1
  H  H282  1  -0.564940  0.330524  0.299475  1
  H  H283  1  -0.432802  -0.209818  0.213709  1
  H  H284  1  -0.536062  -0.320726  0.267982  1
  H  H285  1  -0.435060  0.330524  0.200525  1
  H  H286  1  -0.534581  0.441379  0.277675  1
  H  H287  1  -0.463938  -0.320726  0.232018  1
  H  H288  1  -0.465419  0.441379  0.222325  1
