# generated using pymatgen
data_H7C11
_symmetry_space_group_name_H-M   'P 1'
_cell_length_a   7.20400000
_cell_length_b   9.99400000
_cell_length_c   11.32600000
_cell_angle_alpha   80.81000000
_cell_angle_beta   89.13000000
_cell_angle_gamma   82.21000000
_symmetry_Int_Tables_number   1
_chemical_formula_structural   H7C11
_chemical_formula_sum   'H14 C22'
_cell_volume   797.52262149
_cell_formula_units_Z   2
loop_
 _symmetry_equiv_pos_site_id
 _symmetry_equiv_pos_as_xyz
  1  'x, y, z'
loop_
 _atom_site_type_symbol
 _atom_site_label
 _atom_site_symmetry_multiplicity
 _atom_site_fract_x
 _atom_site_fract_y
 _atom_site_fract_z
 _atom_site_occupancy
  C  C1  1  0.458700  0.571800  0.097900  1
  C  C2  1  0.342300  0.475700  0.073800  1
  C  C3  1  0.615600  0.597800  0.025900  1
  C  C4  1  0.384400  0.402200  -0.025900  1
  C  C5  1  0.183600  0.450000  0.142900  1
  C  C6  1  0.657700  0.524300  -0.073800  1
  C  C7  1  0.734500  0.691900  0.047600  1
  C  C8  1  0.541300  0.428200  -0.097900  1
  C  C9  1  0.265500  0.308100  -0.047600  1
  C  C10  1  0.067200  0.358200  0.119600  1
  C  C11  1  0.816400  0.550000  -0.142900  1
  C  C12  1  0.890100  0.715500  -0.021100  1
  C  C13  1  0.109900  0.284500  0.021100  1
  C  C14  1  -0.095400  0.334200  0.188800  1
  C  C15  1  0.932800  0.641800  -0.119600  1
  C  C16  1  1.013100  0.810300  0.001300  1
  C  C17  1  -0.013100  0.189700  -0.001300  1
  C  C18  1  -0.208000  0.245000  0.163500  1
  C  C19  1  1.095400  0.665800  -0.188800  1
  C  C20  1  1.165600  0.829100  -0.066900  1
  C  C21  1  -0.165600  0.170900  0.066900  1
  C  C22  1  1.208000  0.755000  -0.163500  1
  H  H23  1  0.426708  0.627174  0.173812  1
  H  H24  1  0.148734  0.504483  0.219060  1
  H  H25  1  0.704295  0.749923  0.122001  1
  H  H26  1  0.573292  0.372826  -0.173812  1
  H  H27  1  0.295705  0.250077  -0.122001  1
  H  H28  1  0.851266  0.495517  -0.219060  1
  H  H29  1  -0.135866  0.386968  0.265281  1
  H  H30  1  0.989393  0.871376  0.074109  1
  H  H31  1  0.010607  0.128624  -0.074109  1
  H  H32  1  -0.331658  0.232953  0.220382  1
  H  H33  1  1.135866  0.613032  -0.265281  1
  H  H34  1  1.253524  0.903288  -0.044220  1
  H  H35  1  -0.253524  0.096712  0.044220  1
  H  H36  1  1.331658  0.767047  -0.220382  1
