# generated using pymatgen
data_H7C11
_symmetry_space_group_name_H-M   'P 1'
_cell_length_a   7.62100000
_cell_length_b   17.68000000
_cell_length_c   15.74600000
_cell_angle_alpha   90.00000000
_cell_angle_beta   98.92600000
_cell_angle_gamma   90.00000000
_symmetry_Int_Tables_number   1
_chemical_formula_structural   H7C11
_chemical_formula_sum   'H28 C44'
_cell_volume   2095.91113367
_cell_formula_units_Z   4
loop_
 _symmetry_equiv_pos_site_id
 _symmetry_equiv_pos_as_xyz
  1  'x, y, z'
loop_
 _atom_site_type_symbol
 _atom_site_label
 _atom_site_symmetry_multiplicity
 _atom_site_fract_x
 _atom_site_fract_y
 _atom_site_fract_z
 _atom_site_occupancy
  C  C1  1  0.513200  0.421750  0.479320  1
  C  C2  1  0.352000  0.460980  0.451960  1
  C  C3  1  0.662000  0.459740  0.526320  1
  C  C4  1  0.338000  0.540260  0.473680  1
  C  C5  1  0.204000  0.425180  0.403360  1
  C  C6  1  0.648000  0.539020  0.548040  1
  C  C7  1  0.824100  0.422570  0.551810  1
  C  C8  1  0.486800  0.578250  0.520680  1
  C  C9  1  0.175900  0.577430  0.448190  1
  C  C10  1  0.045500  0.462950  0.377480  1
  C  C11  1  0.796000  0.574820  0.596640  1
  C  C12  1  0.969400  0.458610  0.598730  1
  C  C13  1  0.030600  0.541390  0.401270  1
  C  C14  1  -0.105600  0.427790  0.327540  1
  C  C15  1  0.954500  0.537050  0.622520  1
  C  C16  1  1.134200  0.420560  0.623880  1
  C  C17  1  -0.134200  0.579440  0.376120  1
  C  C18  1  -0.259000  0.465980  0.304080  1
  C  C19  1  1.105600  0.572210  0.672460  1
  C  C20  1  1.273800  0.456250  0.671460  1
  C  C21  1  -0.273800  0.543750  0.328540  1
  C  C22  1  1.259000  0.534020  0.695920  1
  C  C23  1  -0.013200  0.921750  0.020680  1
  C  C24  1  0.148000  0.960980  0.048040  1
  C  C25  1  -0.162000  0.959740  -0.026320  1
  C  C26  1  0.162000  1.040260  0.026320  1
  C  C27  1  0.296000  0.925180  0.096640  1
  C  C28  1  -0.148000  1.039020  -0.048040  1
  C  C29  1  -0.324100  0.922570  -0.051810  1
  C  C30  1  0.013200  1.078250  -0.020680  1
  C  C31  1  0.324100  1.077430  0.051810  1
  C  C32  1  0.454500  0.962950  0.122520  1
  C  C33  1  -0.296000  1.074820  -0.096640  1
  C  C34  1  -0.469400  0.958610  -0.098730  1
  C  C35  1  0.469400  1.041390  0.098730  1
  C  C36  1  0.605600  0.927790  0.172460  1
  C  C37  1  -0.454500  1.037050  -0.122520  1
  C  C38  1  -0.634200  0.920560  -0.123880  1
  C  C39  1  0.634200  1.079440  0.123880  1
  C  C40  1  0.759000  0.965980  0.195920  1
  C  C41  1  -0.605600  1.072210  -0.172460  1
  C  C42  1  -0.773800  0.956250  -0.171460  1
  C  C43  1  0.773800  1.043750  0.171460  1
  C  C44  1  -0.759000  1.034020  -0.195920  1
  H  H45  1  0.522900  0.361347  0.463957  1
  H  H46  1  0.212526  0.365441  0.384911  1
  H  H47  1  0.837802  0.362860  0.534332  1
  H  H48  1  0.477100  0.638653  0.536043  1
  H  H49  1  0.162198  0.637140  0.465668  1
  H  H50  1  0.787474  0.634559  0.615089  1
  H  H51  1  -0.103744  0.368600  0.306172  1
  H  H52  1  1.154404  0.361439  0.605897  1
  H  H53  1  -0.154404  0.638561  0.394103  1
  H  H54  1  -0.368817  0.434620  0.266112  1
  H  H55  1  1.103744  0.631400  0.693828  1
  H  H56  1  1.395811  0.422997  0.689730  1
  H  H57  1  -0.395811  0.577003  0.310270  1
  H  H58  1  1.368817  0.565380  0.733888  1
  H  H59  1  -0.022900  0.861347  0.036043  1
  H  H60  1  0.287474  0.865441  0.115089  1
  H  H61  1  -0.337802  0.862860  -0.034332  1
  H  H62  1  0.022900  1.138653  -0.036043  1
  H  H63  1  0.337802  1.137140  0.034332  1
  H  H64  1  -0.287474  1.134559  -0.115089  1
  H  H65  1  0.603744  0.868600  0.193828  1
  H  H66  1  -0.654404  0.861439  -0.105897  1
  H  H67  1  0.654404  1.138561  0.105897  1
  H  H68  1  0.868817  0.934620  0.233888  1
  H  H69  1  -0.603744  1.131400  -0.193828  1
  H  H70  1  -0.895811  0.922997  -0.189730  1
  H  H71  1  0.895811  1.077003  0.189730  1
  H  H72  1  -0.868817  1.065380  -0.233888  1
