# generated using pymatgen
data_H4C8SN
_symmetry_space_group_name_H-M   'P 1'
_cell_length_a   6.55500000
_cell_length_b   7.12540000
_cell_length_c   16.88370000
_cell_angle_alpha   99.81900000
_cell_angle_beta   93.25500000
_cell_angle_gamma   103.90900000
_symmetry_Int_Tables_number   1
_chemical_formula_structural   H4C8SN
_chemical_formula_sum   'H8 C16 S2 N2'
_cell_volume   750.30032640
_cell_formula_units_Z   2
loop_
 _symmetry_equiv_pos_site_id
 _symmetry_equiv_pos_as_xyz
  1  'x, y, z'
loop_
 _atom_site_type_symbol
 _atom_site_label
 _atom_site_symmetry_multiplicity
 _atom_site_fract_x
 _atom_site_fract_y
 _atom_site_fract_z
 _atom_site_occupancy
  C  C1  1  0.986600  0.852400  0.607600  1
  C  C2  1  1.054800  0.807000  0.529900  1
  C  C3  1  0.781000  0.766200  0.627020  1
  C  C4  1  0.917600  0.680500  0.472210  1
  C  C5  1  1.344200  1.012500  0.588900  1
  C  C6  1  0.640600  0.630600  0.564390  1
  C  C7  1  0.708500  0.591200  0.485660  1
  C  C8  1  0.433600  0.536400  0.577810  1
  C  C9  1  0.566400  0.463600  0.422190  1
  C  C10  1  0.291500  0.408800  0.514340  1
  C  C11  1  0.359400  0.369400  0.435610  1
  C  C12  1  0.082400  0.319500  0.527790  1
  C  C13  1  0.219000  0.233800  0.372980  1
  C  C14  1  -0.054800  0.193000  0.470100  1
  C  C15  1  0.013400  0.147600  0.392400  1
  C  C16  1  -0.344200  -0.012500  0.411100  1
  H  H17  1  0.732634  0.802845  0.687885  1
  H  H18  1  0.977373  0.649574  0.413069  1
  H  H19  1  1.507643  1.082893  0.579765  1
  H  H20  1  0.382198  0.562853  0.638708  1
  H  H21  1  0.617802  0.437147  0.361292  1
  H  H22  1  0.022627  0.350426  0.586931  1
  H  H23  1  0.267366  0.197155  0.312115  1
  H  H24  1  -0.507643  -0.082893  0.420235  1
  N  N25  1  1.261800  0.898800  0.521300  1
  N  N26  1  -0.261800  0.101200  0.478700  1
  S  S27  1  1.191860  1.025100  0.669620  1
  S  S28  1  -0.191860  -0.025100  0.330380  1
