# generated using pymatgen
data_H3C5O
_symmetry_space_group_name_H-M   'P 1'
_cell_length_a   7.28150000
_cell_length_b   8.26650000
_cell_length_c   17.46610000
_cell_angle_alpha   88.94600000
_cell_angle_beta   79.38400000
_cell_angle_gamma   66.08200000
_symmetry_Int_Tables_number   1
_chemical_formula_structural   H3C5O
_chemical_formula_sum   'H12 C20 O4'
_cell_volume   942.74210119
_cell_formula_units_Z   4
loop_
 _symmetry_equiv_pos_site_id
 _symmetry_equiv_pos_as_xyz
  1  'x, y, z'
loop_
 _atom_site_type_symbol
 _atom_site_label
 _atom_site_symmetry_multiplicity
 _atom_site_fract_x
 _atom_site_fract_y
 _atom_site_fract_z
 _atom_site_occupancy
  C  C1  1  0.631700  0.060000  0.593800  1
  C  C2  1  0.729800  0.005000  0.516700  1
  C  C3  1  0.524400  0.232500  0.618700  1
  C  C4  1  0.726100  0.120000  0.459900  1
  C  C5  1  0.787200  -0.238200  0.584100  1
  C  C6  1  0.513600  0.362000  0.561400  1
  C  C7  1  0.616300  0.304600  0.481500  1
  C  C8  1  0.405800  0.543800  0.581600  1
  C  C9  1  0.606100  0.432400  0.425500  1
  C  C10  1  0.393700  0.673200  0.526900  1
  C  C11  1  0.494500  0.618000  0.447400  1
  C  C12  1  0.286100  0.855500  0.547400  1
  C  C13  1  0.479900  0.749800  0.393500  1
  C  C14  1  0.272200  0.984000  0.494300  1
  C  C15  1  0.372800  0.929000  0.414200  1
  C  C16  1  0.160900  1.170100  0.517900  1
  C  C17  1  0.357500  1.065000  0.360000  1
  C  C18  1  0.153600  1.288100  0.462600  1
  C  C19  1  0.253800  1.232600  0.382800  1
  C  C20  1  0.094800  1.533800  0.394700  1
  H  H21  1  0.451597  0.264941  0.680714  1
  H  H22  1  0.806990  0.066938  0.400129  1
  H  H23  1  0.925784  -0.230429  0.596997  1
  H  H24  1  0.648616  -0.245971  0.571203  1
  H  H25  1  0.327872  0.586469  0.642590  1
  H  H26  1  0.685121  0.387357  0.364793  1
  H  H27  1  0.208576  0.900012  0.608294  1
  H  H28  1  0.556029  0.710789  0.332103  1
  H  H29  1  0.081727  1.221943  0.577965  1
  H  H30  1  0.429013  1.039436  0.297709  1
  H  H31  1  -0.043887  1.526017  0.381922  1
  H  H32  1  0.233487  1.541583  0.407478  1
  O  O33  1  0.660100  -0.083200  0.637500  1
  O  O34  1  0.824400  -0.173600  0.508200  1
  O  O35  1  0.059300  1.468000  0.469800  1
  O  O36  1  0.220300  1.381000  0.341600  1
