# generated using pymatgen
data_H5C9S
_symmetry_space_group_name_H-M   'P 1'
_cell_length_a   6.67630000
_cell_length_b   7.24900000
_cell_length_c   16.67360000
_cell_angle_alpha   97.84000000
_cell_angle_beta   94.76800000
_cell_angle_gamma   103.77000000
_symmetry_Int_Tables_number   1
_chemical_formula_structural   H5C9S
_chemical_formula_sum   'H10 C18 S2'
_cell_volume   770.80265806
_cell_formula_units_Z   2
loop_
 _symmetry_equiv_pos_site_id
 _symmetry_equiv_pos_as_xyz
  1  'x, y, z'
loop_
 _atom_site_type_symbol
 _atom_site_label
 _atom_site_symmetry_multiplicity
 _atom_site_fract_x
 _atom_site_fract_y
 _atom_site_fract_z
 _atom_site_occupancy
  C  C1  1  0.038800  0.141300  0.385530  1
  C  C2  1  -0.040900  0.191700  0.460100  1
  C  C3  1  0.237500  0.227300  0.372740  1
  C  C4  1  -0.253400  0.089400  0.457500  1
  C  C5  1  0.085100  0.321900  0.522340  1
  C  C6  1  -0.329500  -0.033100  0.388530  1
  C  C7  1  0.368200  0.365200  0.435230  1
  C  C8  1  0.292700  0.409800  0.512220  1
  C  C9  1  0.574000  0.458500  0.423770  1
  C  C10  1  0.426000  0.541500  0.576230  1
  C  C11  1  0.707300  0.590200  0.487780  1
  C  C12  1  0.631800  0.634800  0.564770  1
  C  C13  1  0.914900  0.678100  0.477660  1
  C  C14  1  0.762500  0.772700  0.627260  1
  C  C15  1  1.040900  0.808300  0.539900  1
  C  C16  1  0.961200  0.858700  0.614470  1
  C  C17  1  1.253400  0.910600  0.542500  1
  C  C18  1  1.329500  1.033100  0.611470  1
  H  H19  1  0.290788  0.186629  0.313747  1
  H  H20  1  -0.353158  0.104174  0.506041  1
  H  H21  1  0.020562  0.355356  0.579570  1
  H  H22  1  -0.492409  -0.110639  0.388910  1
  H  H23  1  0.630891  0.428368  0.364549  1
  H  H24  1  0.369109  0.571632  0.635451  1
  H  H25  1  0.979438  0.644644  0.420430  1
  H  H26  1  0.709212  0.813371  0.686253  1
  H  H27  1  1.353158  0.895826  0.493959  1
  H  H28  1  1.492409  1.110639  0.611090  1
  S  S29  1  -0.148670  -0.033310  0.318960  1
  S  S30  1  1.148670  1.033310  0.681040  1
