# generated using pymatgen
data_H5C7
_symmetry_space_group_name_H-M   'P 1'
_cell_length_a   6.73520000
_cell_length_b   14.85140000
_cell_length_c   23.36480000
_cell_angle_alpha   90.00000000
_cell_angle_beta   94.73500000
_cell_angle_gamma   90.00000000
_symmetry_Int_Tables_number   1
_chemical_formula_structural   H5C7
_chemical_formula_sum   'H40 C56'
_cell_volume   2329.13811095
_cell_formula_units_Z   8
loop_
 _symmetry_equiv_pos_site_id
 _symmetry_equiv_pos_as_xyz
  1  'x, y, z'
loop_
 _atom_site_type_symbol
 _atom_site_label
 _atom_site_symmetry_multiplicity
 _atom_site_fract_x
 _atom_site_fract_y
 _atom_site_fract_z
 _atom_site_occupancy
  C  C1  1  0.228400  0.411400  0.614000  1
  C  C2  1  0.233400  0.431700  0.554000  1
  C  C3  1  0.211900  0.324100  0.631600  1
  C  C4  1  0.221600  0.359400  0.513300  1
  C  C5  1  0.253400  0.520300  0.534600  1
  C  C6  1  0.195800  0.252400  0.591300  1
  C  C7  1  0.198700  0.268500  0.533700  1
  C  C8  1  0.229800  0.378600  0.455200  1
  C  C9  1  0.258500  0.538600  0.476600  1
  C  C10  1  0.249600  0.466300  0.436100  1
  C  C11  1  0.277200  0.627700  0.455700  1
  C  C12  1  0.259000  0.488200  0.377000  1
  C  C13  1  0.284400  0.644800  0.399400  1
  C  C14  1  0.275400  0.573800  0.359300  1
  C  C15  1  -0.228400  0.911400  -0.114000  1
  C  C16  1  -0.233400  0.931700  -0.054000  1
  C  C17  1  -0.211900  0.824100  -0.131600  1
  C  C18  1  -0.221600  0.859400  -0.013300  1
  C  C19  1  -0.253400  1.020300  -0.034600  1
  C  C20  1  -0.195800  0.752400  -0.091300  1
  C  C21  1  -0.198700  0.768500  -0.033700  1
  C  C22  1  -0.229800  0.878600  0.044800  1
  C  C23  1  -0.258500  1.038600  0.023400  1
  C  C24  1  -0.249600  0.966300  0.063900  1
  C  C25  1  -0.277200  1.127700  0.044300  1
  C  C26  1  -0.259000  0.988200  0.123000  1
  C  C27  1  -0.284400  1.144800  0.100600  1
  C  C28  1  -0.275400  1.073800  0.140700  1
  C  C29  1  -0.228400  0.588600  0.386000  1
  C  C30  1  -0.233400  0.568300  0.446000  1
  C  C31  1  -0.211900  0.675900  0.368400  1
  C  C32  1  -0.221600  0.640600  0.486700  1
  C  C33  1  -0.253400  0.479700  0.465400  1
  C  C34  1  -0.195800  0.747600  0.408700  1
  C  C35  1  -0.198700  0.731500  0.466300  1
  C  C36  1  -0.229800  0.621400  0.544800  1
  C  C37  1  -0.258500  0.461400  0.523400  1
  C  C38  1  -0.249600  0.533700  0.563900  1
  C  C39  1  -0.277200  0.372300  0.544300  1
  C  C40  1  -0.259000  0.511800  0.623000  1
  C  C41  1  -0.284400  0.355200  0.600600  1
  C  C42  1  -0.275400  0.426200  0.640700  1
  C  C43  1  0.228400  0.088600  0.114000  1
  C  C44  1  0.233400  0.068300  0.054000  1
  C  C45  1  0.211900  0.175900  0.131600  1
  C  C46  1  0.221600  0.140600  0.013300  1
  C  C47  1  0.253400  -0.020300  0.034600  1
  C  C48  1  0.195800  0.247600  0.091300  1
  C  C49  1  0.198700  0.231500  0.033700  1
  C  C50  1  0.229800  0.121400  -0.044800  1
  C  C51  1  0.258500  -0.038600  -0.023400  1
  C  C52  1  0.249600  0.033700  -0.063900  1
  C  C53  1  0.277200  -0.127700  -0.044300  1
  C  C54  1  0.259000  0.011800  -0.123000  1
  C  C55  1  0.284400  -0.144800  -0.100600  1
  C  C56  1  0.275400  -0.073800  -0.140700  1
  H  H57  1  0.237425  0.463978  0.647273  1
  H  H58  1  0.211579  0.311599  0.677996  1
  H  H59  1  0.265295  0.576422  0.565415  1
  H  H60  1  0.180592  0.182122  0.605147  1
  H  H61  1  0.183098  0.210149  0.504680  1
  H  H62  1  0.220443  0.323345  0.423741  1
  H  H63  1  0.286569  0.686360  0.484541  1
  H  H64  1  0.253301  0.436337  0.343293  1
  H  H65  1  0.297418  0.715593  0.386382  1
  H  H66  1  0.281330  0.585499  0.312984  1
  H  H67  1  -0.237425  0.963978  -0.147273  1
  H  H68  1  -0.211579  0.811599  -0.177996  1
  H  H69  1  -0.265295  1.076422  -0.065415  1
  H  H70  1  -0.180592  0.682122  -0.105147  1
  H  H71  1  -0.183098  0.710149  -0.004680  1
  H  H72  1  -0.220443  0.823345  0.076259  1
  H  H73  1  -0.286569  1.186360  0.015459  1
  H  H74  1  -0.253301  0.936337  0.156707  1
  H  H75  1  -0.297418  1.215593  0.113618  1
  H  H76  1  -0.281330  1.085499  0.187016  1
  H  H77  1  -0.237425  0.536022  0.352727  1
  H  H78  1  -0.211579  0.688401  0.322004  1
  H  H79  1  -0.265295  0.423578  0.434585  1
  H  H80  1  -0.180592  0.817878  0.394853  1
  H  H81  1  -0.183098  0.789851  0.495320  1
  H  H82  1  -0.220443  0.676655  0.576259  1
  H  H83  1  -0.286569  0.313640  0.515459  1
  H  H84  1  -0.253301  0.563663  0.656707  1
  H  H85  1  -0.297418  0.284407  0.613618  1
  H  H86  1  -0.281330  0.414501  0.687016  1
  H  H87  1  0.237425  0.036022  0.147273  1
  H  H88  1  0.211579  0.188401  0.177996  1
  H  H89  1  0.265295  -0.076422  0.065415  1
  H  H90  1  0.180592  0.317878  0.105147  1
  H  H91  1  0.183098  0.289851  0.004680  1
  H  H92  1  0.220443  0.176655  -0.076259  1
  H  H93  1  0.286569  -0.186360  -0.015459  1
  H  H94  1  0.253301  0.063663  -0.156707  1
  H  H95  1  0.297418  -0.215593  -0.113618  1
  H  H96  1  0.281330  -0.085499  -0.187016  1
