# generated using pymatgen
data_H7C11
_symmetry_space_group_name_H-M   'P 1'
_cell_length_a   7.44360000
_cell_length_b   7.69060000
_cell_length_c   16.82400000
_cell_angle_alpha   89.06000000
_cell_angle_beta   78.62000000
_cell_angle_gamma   85.09300000
_symmetry_Int_Tables_number   1
_chemical_formula_structural   H7C11
_chemical_formula_sum   'H14 C22'
_cell_volume   940.70738716
_cell_formula_units_Z   2
loop_
 _symmetry_equiv_pos_site_id
 _symmetry_equiv_pos_as_xyz
  1  'x, y, z'
loop_
 _atom_site_type_symbol
 _atom_site_label
 _atom_site_symmetry_multiplicity
 _atom_site_fract_x
 _atom_site_fract_y
 _atom_site_fract_z
 _atom_site_occupancy
  C  C1  1  0.553400  0.560800  0.419830  1
  C  C2  1  0.680200  0.454100  0.455430  1
  C  C3  1  0.373900  0.606400  0.462960  1
  C  C4  1  0.626100  0.393600  0.537040  1
  C  C5  1  0.859200  0.408600  0.413160  1
  C  C6  1  0.319800  0.545900  0.544570  1
  C  C7  1  0.244800  0.707600  0.427630  1
  C  C8  1  0.446600  0.439200  0.580170  1
  C  C9  1  0.755200  0.292400  0.572370  1
  C  C10  1  0.984500  0.308100  0.448570  1
  C  C11  1  0.140800  0.591400  0.586840  1
  C  C12  1  0.068700  0.750100  0.469540  1
  C  C13  1  0.931300  0.249900  0.530460  1
  C  C14  1  1.166800  0.261200  0.407350  1
  C  C15  1  0.015500  0.691900  0.551430  1
  C  C16  1  -0.065700  0.852000  0.435050  1
  C  C17  1  1.065700  0.148000  0.564950  1
  C  C18  1  1.289900  0.164500  0.441920  1
  C  C19  1  -0.166800  0.738800  0.592650  1
  C  C20  1  -0.237200  0.893200  0.477090  1
  C  C21  1  1.237200  0.106800  0.522910  1
  C  C22  1  -0.289900  0.835500  0.558080  1
  H  H23  1  0.595072  0.609114  0.357575  1
  H  H24  1  0.902614  0.453065  0.350359  1
  H  H25  1  0.282880  0.755160  0.365048  1
  H  H26  1  0.404928  0.390886  0.642425  1
  H  H27  1  0.717120  0.244840  0.634952  1
  H  H28  1  0.097386  0.546935  0.649641  1
  H  H29  1  1.215916  0.302517  0.344470  1
  H  H30  1  -0.035399  0.901576  0.372546  1
  H  H31  1  1.035399  0.098424  0.627454  1
  H  H32  1  1.428400  0.133775  0.405349  1
  H  H33  1  -0.215916  0.697483  0.655530  1
  H  H34  1  -0.332327  0.972392  0.445901  1
  H  H35  1  1.332327  0.027608  0.554099  1
  H  H36  1  -0.428400  0.866225  0.594651  1
