# generated using pymatgen
data_H7(C6O)2
_symmetry_space_group_name_H-M   'P 1'
_cell_length_a   7.61700000
_cell_length_b   7.76500000
_cell_length_c   17.53900000
_cell_angle_alpha   93.79000000
_cell_angle_beta   101.85000000
_cell_angle_gamma   93.84000000
_symmetry_Int_Tables_number   1
_chemical_formula_structural   H7(C6O)2
_chemical_formula_sum   'H14 C24 O4'
_cell_volume   1009.58221667
_cell_formula_units_Z   2
loop_
 _symmetry_equiv_pos_site_id
 _symmetry_equiv_pos_as_xyz
  1  'x, y, z'
loop_
 _atom_site_type_symbol
 _atom_site_label
 _atom_site_symmetry_multiplicity
 _atom_site_fract_x
 _atom_site_fract_y
 _atom_site_fract_z
 _atom_site_occupancy
  C  C1  1  0.678900  0.156500  0.965100  1
  C  C2  1  0.612600  0.168200  0.884700  1
  C  C3  1  0.590600  0.211200  1.019800  1
  C  C4  1  0.459100  0.238100  0.856100  1
  C  C5  1  0.871900  0.039300  0.898900  1
  C  C6  1  0.424900  0.285400  0.994400  1
  C  C7  1  0.357600  0.302400  0.911900  1
  C  C8  1  0.327000  0.344900  1.047200  1
  C  C9  1  0.199800  0.382600  0.889100  1
  C  C10  1  0.162400  0.421400  1.024600  1
  C  C11  1  0.099600  0.443000  0.943200  1
  C  C12  1  0.062200  0.476000  1.080300  1
  C  C13  1  -0.062200  0.524000  0.919700  1
  C  C14  1  -0.099600  0.557000  1.056800  1
  C  C15  1  -0.162400  0.578600  0.975400  1
  C  C16  1  -0.199800  0.617400  1.110900  1
  C  C17  1  -0.327000  0.655100  0.952800  1
  C  C18  1  -0.357600  0.697600  1.088100  1
  C  C19  1  -0.424900  0.714600  1.005600  1
  C  C20  1  -0.459100  0.761900  1.143900  1
  C  C21  1  -0.590600  0.788800  0.980200  1
  C  C22  1  -0.612600  0.831800  1.115300  1
  C  C23  1  -0.678900  0.843500  1.034900  1
  C  C24  1  -0.871900  0.960700  1.101100  1
  H  H25  1  0.650150  0.196197  1.081428  1
  H  H26  1  0.419815  0.242331  0.792338  1
  H  H27  1  0.952148  0.163754  0.902163  1
  H  H28  1  0.791652  -0.085154  0.895637  1
  H  H29  1  0.381985  0.330886  1.109357  1
  H  H30  1  0.152946  0.398706  0.826547  1
  H  H31  1  0.110421  0.455334  1.142298  1
  H  H32  1  -0.110421  0.544666  0.857702  1
  H  H33  1  -0.152946  0.601294  1.173453  1
  H  H34  1  -0.381985  0.669114  0.890643  1
  H  H35  1  -0.419815  0.757669  1.207662  1
  H  H36  1  -0.650150  0.803803  0.918572  1
  H  H37  1  -0.952148  0.836246  1.097837  1
  H  H38  1  -0.791652  1.085154  1.104363  1
  O  O39  1  0.839400  0.082600  0.975470  1
  O  O40  1  0.730500  0.101700  0.843080  1
  O  O41  1  -0.730500  0.898300  1.156920  1
  O  O42  1  -0.839400  0.917400  1.024530  1
