# generated using pymatgen
data_H7C11
_symmetry_space_group_name_H-M   'P 1'
_cell_length_a   9.24560000
_cell_length_b   14.02980000
_cell_length_c   20.57760000
_cell_angle_alpha   100.91500000
_cell_angle_beta   102.57100000
_cell_angle_gamma   102.64700000
_symmetry_Int_Tables_number   1
_chemical_formula_structural   H7C11
_chemical_formula_sum   'H28 C44'
_cell_volume   2462.02758971
_cell_formula_units_Z   4
loop_
 _symmetry_equiv_pos_site_id
 _symmetry_equiv_pos_as_xyz
  1  'x, y, z'
loop_
 _atom_site_type_symbol
 _atom_site_label
 _atom_site_symmetry_multiplicity
 _atom_site_fract_x
 _atom_site_fract_y
 _atom_site_fract_z
 _atom_site_occupancy
  C  C1  1  0.593500  0.722200  0.588700  1
  C  C2  1  0.510500  0.771700  0.546800  1
  C  C3  1  0.650500  0.643200  0.560100  1
  C  C4  1  0.486100  0.743800  0.474200  1
  C  C5  1  0.454000  0.849500  0.576300  1
  C  C6  1  0.625300  0.614800  0.487000  1
  C  C7  1  0.730900  0.591500  0.600300  1
  C  C8  1  0.546900  0.666667  0.444800  1
  C  C9  1  0.406200  0.794800  0.432400  1
  C  C10  1  0.373400  0.900100  0.535600  1
  C  C11  1  0.680400  0.535100  0.456500  1
  C  C12  1  0.787400  0.514300  0.572800  1
  C  C13  1  0.347600  0.871800  0.461300  1
  C  C14  1  0.311500  0.978900  0.563700  1
  C  C15  1  0.761400  0.485100  0.498100  1
  C  C16  1  0.873000  0.462400  0.612600  1
  C  C17  1  0.265500  0.925400  0.421500  1
  C  C18  1  0.233500  1.027300  0.522900  1
  C  C19  1  0.819700  0.405700  0.470000  1
  C  C20  1  0.928000  0.387100  0.582400  1
  C  C21  1  0.209100  1.000300  0.450600  1
  C  C22  1  0.899500  0.358000  0.509200  1
  C  C23  1  0.406500  0.277800  0.411300  1
  C  C24  1  0.489500  0.228300  0.453200  1
  C  C25  1  0.349500  0.356800  0.439900  1
  C  C26  1  0.513900  0.256200  0.525800  1
  C  C27  1  0.546000  0.150500  0.423700  1
  C  C28  1  0.374700  0.385200  0.513000  1
  C  C29  1  0.269100  0.408500  0.399700  1
  C  C30  1  0.453100  0.333333  0.555200  1
  C  C31  1  0.593800  0.205200  0.567600  1
  C  C32  1  0.626600  0.099900  0.464400  1
  C  C33  1  0.319600  0.464900  0.543500  1
  C  C34  1  0.212600  0.485700  0.427200  1
  C  C35  1  0.652400  0.128200  0.538700  1
  C  C36  1  0.688500  0.021100  0.436300  1
  C  C37  1  0.238600  0.514900  0.501900  1
  C  C38  1  0.127000  0.537600  0.387400  1
  C  C39  1  0.734500  0.074600  0.578500  1
  C  C40  1  0.766500  -0.027300  0.477100  1
  C  C41  1  0.180300  0.594300  0.530000  1
  C  C42  1  0.072000  0.612900  0.417600  1
  C  C43  1  0.790900  -0.000300  0.549400  1
  C  C44  1  0.100500  0.642000  0.490800  1
  H  H45  1  0.614189  0.745674  0.644800  1
  H  H46  1  0.473253  0.871230  0.632382  1
  H  H47  1  0.750716  0.612642  0.656431  1
  H  H48  1  0.533195  0.646992  0.389046  1
  H  H49  1  0.389340  0.774220  0.376438  1
  H  H50  1  0.660253  0.511997  0.400415  1
  H  H51  1  0.324466  1.003383  0.619189  1
  H  H52  1  0.897644  0.481246  0.668976  1
  H  H53  1  0.244532  0.908022  0.365285  1
  H  H54  1  0.190664  1.087558  0.548074  1
  H  H55  1  0.801890  0.379441  0.414251  1
  H  H56  1  0.993978  0.350595  0.616377  1
  H  H57  1  0.145565  1.037965  0.416631  1
  H  H58  1  0.939826  0.297629  0.482473  1
  H  H59  1  0.385811  0.254326  0.355200  1
  H  H60  1  0.526747  0.128770  0.367618  1
  H  H61  1  0.249284  0.387358  0.343569  1
  H  H62  1  0.466805  0.353008  0.610954  1
  H  H63  1  0.610660  0.225780  0.623562  1
  H  H64  1  0.339747  0.488003  0.599585  1
  H  H65  1  0.675534  -0.003383  0.380811  1
  H  H66  1  0.102356  0.518754  0.331024  1
  H  H67  1  0.755468  0.091978  0.634715  1
  H  H68  1  0.809336  -0.087558  0.451926  1
  H  H69  1  0.198110  0.620559  0.585749  1
  H  H70  1  0.006022  0.649405  0.383623  1
  H  H71  1  0.854435  -0.037965  0.583369  1
  H  H72  1  0.060174  0.702371  0.517527  1
