# generated using pymatgen
data_H7C11
_symmetry_space_group_name_H-M   'P 1'
_cell_length_a   7.21000000
_cell_length_b   9.96500000
_cell_length_c   11.38900000
_cell_angle_alpha   80.51700000
_cell_angle_beta   88.83700000
_cell_angle_gamma   82.17300000
_symmetry_Int_Tables_number   1
_chemical_formula_structural   H7C11
_chemical_formula_sum   'H14 C22'
_cell_volume   799.56984515
_cell_formula_units_Z   2
loop_
 _symmetry_equiv_pos_site_id
 _symmetry_equiv_pos_as_xyz
  1  'x, y, z'
loop_
 _atom_site_type_symbol
 _atom_site_label
 _atom_site_symmetry_multiplicity
 _atom_site_fract_x
 _atom_site_fract_y
 _atom_site_fract_z
 _atom_site_occupancy
  C  C1  1  0.041200  0.929020  0.901970  1
  C  C2  1  0.158000  1.024800  0.926260  1
  C  C3  1  -0.116400  0.902720  0.974380  1
  C  C4  1  0.116400  1.097280  1.025620  1
  C  C5  1  0.317400  1.050010  0.856590  1
  C  C6  1  -0.158000  0.975200  1.073740  1
  C  C7  1  -0.235200  0.808450  0.951650  1
  C  C8  1  -0.041200  1.070980  1.098030  1
  C  C9  1  0.235200  1.191550  1.048350  1
  C  C10  1  0.434400  1.141880  0.880590  1
  C  C11  1  -0.317400  0.949990  1.143410  1
  C  C12  1  -0.391800  0.784840  1.020930  1
  C  C13  1  0.391800  1.215160  0.979070  1
  C  C14  1  0.597900  1.165240  0.811160  1
  C  C15  1  -0.434400  0.858120  1.119410  1
  C  C16  1  -0.514400  0.690080  0.998410  1
  C  C17  1  0.514400  1.309920  1.001590  1
  C  C18  1  0.711400  1.254490  0.836560  1
  C  C19  1  -0.597900  0.834760  1.188840  1
  C  C20  1  -0.668800  0.671440  1.066640  1
  C  C21  1  0.668800  1.328560  0.933360  1
  C  C22  1  -0.711400  0.745510  1.163440  1
  H  H23  1  0.073245  0.874449  0.826019  1
  H  H24  1  0.351805  0.995920  0.780583  1
  H  H25  1  -0.204609  0.751265  0.877187  1
  H  H26  1  -0.073245  1.125551  1.173981  1
  H  H27  1  0.204609  1.248735  1.122813  1
  H  H28  1  -0.351805  1.004080  1.219417  1
  H  H29  1  0.638003  1.112392  0.735100  1
  H  H30  1  -0.489006  0.629295  0.925942  1
  H  H31  1  0.489006  1.370705  1.074058  1
  H  H32  1  0.835336  1.266542  0.779872  1
  H  H33  1  -0.638003  0.887608  1.264900  1
  H  H34  1  -0.757514  0.597874  1.043969  1
  H  H35  1  0.757514  1.402126  0.956031  1
  H  H36  1  -0.835336  0.733458  1.220128  1
