# generated using pymatgen
data_H7(C5S)3
_symmetry_space_group_name_H-M   'P 1'
_cell_length_a   9.95560000
_cell_length_b   10.14930000
_cell_length_c   14.95800000
_cell_angle_alpha   92.56400000
_cell_angle_beta   98.00800000
_cell_angle_gamma   110.72200000
_symmetry_Int_Tables_number   1
_chemical_formula_structural   H7(C5S)3
_chemical_formula_sum   'H14 C30 S6'
_cell_volume   1392.59995999
_cell_formula_units_Z   2
loop_
 _symmetry_equiv_pos_site_id
 _symmetry_equiv_pos_as_xyz
  1  'x, y, z'
loop_
 _atom_site_type_symbol
 _atom_site_label
 _atom_site_symmetry_multiplicity
 _atom_site_fract_x
 _atom_site_fract_y
 _atom_site_fract_z
 _atom_site_occupancy
  C  C1  1  0.920670  0.081970  0.472090  1
  C  C2  1  1.012640  0.117070  0.556770  1
  C  C3  1  0.906320  -0.035030  0.413120  1
  C  C4  1  0.989800  0.243600  0.591100  1
  C  C5  1  1.093680  0.035030  0.586880  1
  C  C6  1  0.900000  0.294000  0.538800  1
  C  C7  1  0.987360  -0.117070  0.443230  1
  C  C8  1  1.079330  -0.081970  0.527910  1
  C  C9  1  0.865000  0.416000  0.562400  1
  C  C10  1  1.010200  -0.243600  0.408900  1
  C  C11  1  0.763400  0.454400  0.510400  1
  C  C12  1  1.100000  -0.294000  0.461200  1
  C  C13  1  0.749800  0.579300  0.547500  1
  C  C14  1  0.847500  0.638900  0.629800  1
  C  C15  1  1.135000  -0.416000  0.437600  1
  C  C16  1  0.659100  0.648300  0.509900  1
  C  C17  1  0.853000  0.760400  0.678900  1
  C  C18  1  1.236600  -0.454400  0.489600  1
  C  C19  1  0.666100  0.771500  0.558400  1
  C  C20  1  0.760600  0.828200  0.642600  1
  C  C21  1  1.250200  -0.579300  0.452500  1
  C  C22  1  1.152500  -0.638900  0.370200  1
  C  C23  1  0.750900  0.957200  0.677500  1
  C  C24  1  1.340900  -0.648300  0.490100  1
  C  C25  1  1.147000  -0.760400  0.321100  1
  C  C26  1  0.644800  0.989200  0.626000  1
  C  C27  1  1.333900  -0.771500  0.441600  1
  C  C28  1  1.239400  -0.828200  0.357400  1
  C  C29  1  1.249100  -0.957200  0.322500  1
  C  C30  1  1.355200  -0.989200  0.374000  1
  H  H31  1  0.835088  -0.061136  0.346600  1
  H  H32  1  1.041550  0.302437  0.658052  1
  H  H33  1  1.164912  0.061136  0.653400  1
  H  H34  1  0.958450  -0.302437  0.341948  1
  H  H35  1  0.700123  0.392201  0.446332  1
  H  H36  1  0.585224  0.607317  0.444796  1
  H  H37  1  0.927425  0.801224  0.743823  1
  H  H38  1  1.299877  -0.392201  0.553668  1
  H  H39  1  0.818890  1.025614  0.738437  1
  H  H40  1  1.414776  -0.607317  0.555204  1
  H  H41  1  1.072575  -0.801224  0.256177  1
  H  H42  1  0.625933  1.081048  0.655565  1
  H  H43  1  1.181110  -1.025614  0.261563  1
  H  H44  1  1.374067  -1.081048  0.344435  1
  S  S45  1  0.820390  0.183900  0.438790  1
  S  S46  1  1.179610  -0.183900  0.561210  1
  S  S47  1  0.948550  0.532920  0.658930  1
  S  S48  1  1.051450  -0.532920  0.341070  1
  S  S49  1  0.567890  0.879100  0.528760  1
  S  S50  1  1.432110  -0.879100  0.471240  1
