# generated using pymatgen
data_H6C11S
_symmetry_space_group_name_H-M   'P 1'
_cell_length_a   8.69210000
_cell_length_b   17.72560000
_cell_length_c   13.37780000
_cell_angle_alpha   90.00000000
_cell_angle_beta   100.09380000
_cell_angle_gamma   90.00000000
_symmetry_Int_Tables_number   1
_chemical_formula_structural   H6C11S
_chemical_formula_sum   'H24 C44 S4'
_cell_volume   2029.25137751
_cell_formula_units_Z   4
loop_
 _symmetry_equiv_pos_site_id
 _symmetry_equiv_pos_as_xyz
  1  'x, y, z'
loop_
 _atom_site_type_symbol
 _atom_site_label
 _atom_site_symmetry_multiplicity
 _atom_site_fract_x
 _atom_site_fract_y
 _atom_site_fract_z
 _atom_site_occupancy
  C  C1  1  0.389900  0.238390  0.103400  1
  C  C2  1  0.421500  0.317000  0.124700  1
  C  C3  1  0.266200  0.203530  0.133800  1
  C  C4  1  0.558100  0.341000  0.089800  1
  C  C5  1  0.324400  0.359000  0.173700  1
  C  C6  1  0.629900  0.285500  0.043400  1
  C  C7  1  0.162600  0.244730  0.184200  1
  C  C8  1  0.191900  0.324930  0.203100  1
  C  C9  1  0.032000  0.210850  0.214300  1
  C  C10  1  0.086600  0.367190  0.250300  1
  C  C11  1  -0.075400  0.253260  0.260100  1
  C  C12  1  -0.046800  0.332470  0.279700  1
  C  C13  1  -0.208600  0.220530  0.287300  1
  C  C14  1  -0.150400  0.373700  0.328700  1
  C  C15  1  -0.313400  0.261320  0.334000  1
  C  C16  1  -0.281700  0.340200  0.356900  1
  C  C17  1  -0.447400  0.227600  0.362500  1
  C  C18  1  -0.383700  0.380600  0.408900  1
  C  C19  1  -0.543000  0.268200  0.412400  1
  C  C20  1  -0.509500  0.346020  0.436500  1
  C  C21  1  -0.682700  0.245800  0.443400  1
  C  C22  1  -0.748200  0.300800  0.494800  1
  C  C23  1  -0.389900  -0.261610  0.896600  1
  C  C24  1  -0.421500  -0.183000  0.875300  1
  C  C25  1  -0.266200  -0.296470  0.866200  1
  C  C26  1  -0.558100  -0.159000  0.910200  1
  C  C27  1  -0.324400  -0.141000  0.826300  1
  C  C28  1  -0.629900  -0.214500  0.956600  1
  C  C29  1  -0.162600  -0.255270  0.815800  1
  C  C30  1  -0.191900  -0.175070  0.796900  1
  C  C31  1  -0.032000  -0.289150  0.785700  1
  C  C32  1  -0.086600  -0.132810  0.749700  1
  C  C33  1  0.075400  -0.246740  0.739900  1
  C  C34  1  0.046800  -0.167530  0.720300  1
  C  C35  1  0.208600  -0.279470  0.712700  1
  C  C36  1  0.150400  -0.126300  0.671300  1
  C  C37  1  0.313400  -0.238680  0.666000  1
  C  C38  1  0.281700  -0.159800  0.643100  1
  C  C39  1  0.447400  -0.272400  0.637500  1
  C  C40  1  0.383700  -0.119400  0.591100  1
  C  C41  1  0.543000  -0.231800  0.587600  1
  C  C42  1  0.509500  -0.153980  0.563500  1
  C  C43  1  0.682700  -0.254200  0.556600  1
  C  C44  1  0.748200  -0.199200  0.505200  1
  H  H45  1  0.250174  0.142886  0.117854  1
  H  H46  1  0.605138  0.398709  0.098148  1
  H  H47  1  0.352262  0.418872  0.189126  1
  H  H48  1  0.736103  0.304543  0.016647  1
  H  H49  1  0.013479  0.149946  0.201766  1
  H  H50  1  0.108691  0.427707  0.264293  1
  H  H51  1  -0.231855  0.160330  0.271333  1
  H  H52  1  -0.128098  0.433868  0.345447  1
  H  H53  1  -0.478082  0.168218  0.345401  1
  H  H54  1  -0.364667  0.440561  0.428412  1
  H  H55  1  -0.736390  0.189794  0.428639  1
  H  H56  1  -0.853955  0.282125  0.522410  1
  H  H57  1  -0.250174  -0.357114  0.882146  1
  H  H58  1  -0.605138  -0.101291  0.901852  1
  H  H59  1  -0.352262  -0.081128  0.810874  1
  H  H60  1  -0.736103  -0.195457  0.983353  1
  H  H61  1  -0.013479  -0.350054  0.798234  1
  H  H62  1  -0.108691  -0.072293  0.735707  1
  H  H63  1  0.231855  -0.339670  0.728667  1
  H  H64  1  0.128098  -0.066132  0.654553  1
  H  H65  1  0.478082  -0.331782  0.654599  1
  H  H66  1  0.364667  -0.059439  0.571588  1
  H  H67  1  0.736390  -0.310206  0.571361  1
  H  H68  1  0.853955  -0.217875  0.477590  1
  S  S69  1  0.530600  0.199320  0.040100  1
  S  S70  1  -0.646700  0.385290  0.502600  1
  S  S71  1  -0.530600  -0.300680  0.959900  1
  S  S72  1  0.646700  -0.114710  0.497400  1
