# generated using pymatgen
data_H7C11
_symmetry_space_group_name_H-M   'P 1'
_cell_length_a   5.89780000
_cell_length_b   14.18660000
_cell_length_c   26.42140000
_cell_angle_alpha   78.67300000
_cell_angle_beta   84.72800000
_cell_angle_gamma   84.50700000
_symmetry_Int_Tables_number   1
_chemical_formula_structural   H7C11
_chemical_formula_sum   'H28 C44'
_cell_volume   2151.60122569
_cell_formula_units_Z   4
loop_
 _symmetry_equiv_pos_site_id
 _symmetry_equiv_pos_as_xyz
  1  'x, y, z'
loop_
 _atom_site_type_symbol
 _atom_site_label
 _atom_site_symmetry_multiplicity
 _atom_site_fract_x
 _atom_site_fract_y
 _atom_site_fract_z
 _atom_site_occupancy
  C  C1  1  0.286300  0.540100  0.018400  1
  C  C2  1  0.395500  0.458600  0.049000  1
  C  C3  1  0.386300  0.581100  -0.031300  1
  C  C4  1  0.613700  0.418900  0.031300  1
  C  C5  1  0.295100  0.413500  0.097000  1
  C  C6  1  0.604500  0.541400  -0.049000  1
  C  C7  1  0.270700  0.657200  -0.063400  1
  C  C8  1  0.713700  0.459900  -0.018400  1
  C  C9  1  0.729300  0.342800  0.063400  1
  C  C10  1  0.408300  0.337100  0.129000  1
  C  C11  1  0.704900  0.586500  -0.097000  1
  C  C12  1  0.369000  0.697800  -0.112100  1
  C  C13  1  0.631000  0.302200  0.112100  1
  C  C14  1  0.310600  0.293600  0.178400  1
  C  C15  1  0.591700  0.662900  -0.129000  1
  C  C16  1  0.250900  0.774500  -0.146500  1
  C  C17  1  0.749100  0.225500  0.146500  1
  C  C18  1  0.428500  0.221900  0.209000  1
  C  C19  1  0.689400  0.706400  -0.178400  1
  C  C20  1  0.350100  0.811900  -0.193300  1
  C  C21  1  0.649900  0.188100  0.193300  1
  C  C22  1  0.571500  0.778100  -0.209000  1
  C  C23  1  -0.182000  -0.043700  0.483300  1
  C  C24  1  -0.095200  -0.083600  0.531200  1
  C  C25  1  -0.096100  0.041300  0.452600  1
  C  C26  1  0.096100  -0.041300  0.547400  1
  C  C27  1  -0.178600  -0.163600  0.564500  1
  C  C28  1  0.095200  0.083600  0.468800  1
  C  C29  1  -0.193100  0.086600  0.406200  1
  C  C30  1  0.182000  0.043700  0.516700  1
  C  C31  1  0.193100  -0.086600  0.593800  1
  C  C32  1  -0.088000  -0.205700  0.610400  1
  C  C33  1  0.178600  0.163600  0.435500  1
  C  C34  1  -0.110000  0.166700  0.375000  1
  C  C35  1  0.110000  -0.166700  0.625000  1
  C  C36  1  -0.173400  -0.287700  0.645200  1
  C  C37  1  0.088000  0.205700  0.389600  1
  C  C38  1  -0.207100  0.212900  0.328400  1
  C  C39  1  0.207100  -0.212900  0.671600  1
  C  C40  1  -0.070900  -0.328700  0.688900  1
  C  C41  1  0.173400  0.287700  0.354800  1
  C  C42  1  -0.124500  0.291100  0.296900  1
  C  C43  1  0.124500  -0.291100  0.703100  1
  C  C44  1  0.070900  0.328700  0.311100  1
  H  H45  1  0.122382  0.571834  0.033366  1
  H  H46  1  0.121492  0.438940  0.110004  1
  H  H47  1  0.100045  0.685523  -0.050156  1
  H  H48  1  0.877618  0.428166  -0.033366  1
  H  H49  1  0.899955  0.314477  0.050156  1
  H  H50  1  0.878508  0.561060  -0.110004  1
  H  H51  1  0.138012  0.316174  0.193449  1
  H  H52  1  0.078326  0.805711  -0.136652  1
  H  H53  1  0.921674  0.194289  0.136652  1
  H  H54  1  0.344234  0.191043  0.246696  1
  H  H55  1  0.861988  0.683826  -0.193449  1
  H  H56  1  0.251494  0.869353  -0.218395  1
  H  H57  1  0.748506  0.130647  0.218395  1
  H  H58  1  0.655766  0.808957  -0.246696  1
  H  H59  1  -0.317095  -0.078980  0.469845  1
  H  H60  1  -0.325754  -0.195652  0.553844  1
  H  H61  1  -0.341177  0.057988  0.393703  1
  H  H62  1  0.317095  0.078980  0.530155  1
  H  H63  1  0.341177  -0.057988  0.606297  1
  H  H64  1  0.325754  0.195652  0.446156  1
  H  H65  1  -0.325496  -0.320887  0.637996  1
  H  H66  1  -0.357409  0.186134  0.315770  1
  H  H67  1  0.357409  -0.186134  0.684230  1
  H  H68  1  -0.146069  -0.392298  0.712770  1
  H  H69  1  0.325496  0.320887  0.362004  1
  H  H70  1  -0.211515  0.322419  0.261647  1
  H  H71  1  0.211515  -0.322419  0.738353  1
  H  H72  1  0.146069  0.392298  0.287230  1
