# generated using pymatgen
data_H5C9S
_symmetry_space_group_name_H-M   'P 1'
_cell_length_a   10.67030000
_cell_length_b   16.20680000
_cell_length_c   12.04900000
_cell_angle_alpha   90.00000000
_cell_angle_beta   106.68300000
_cell_angle_gamma   90.00000000
_symmetry_Int_Tables_number   1
_chemical_formula_structural   H5C9S
_chemical_formula_sum   'H20 C36 S4'
_cell_volume   1995.94503718
_cell_formula_units_Z   4
loop_
 _symmetry_equiv_pos_site_id
 _symmetry_equiv_pos_as_xyz
  1  'x, y, z'
loop_
 _atom_site_type_symbol
 _atom_site_label
 _atom_site_symmetry_multiplicity
 _atom_site_fract_x
 _atom_site_fract_y
 _atom_site_fract_z
 _atom_site_occupancy
  C  C1  1  0.250300  0.125470  0.289660  1
  C  C2  1  0.202900  0.130920  0.389200  1
  C  C3  1  0.362200  0.082890  0.293140  1
  C  C4  1  0.083700  0.177900  0.361700  1
  C  C5  1  0.268600  0.091680  0.489620  1
  C  C6  1  0.043000  0.205400  0.251600  1
  C  C7  1  0.432000  0.041820  0.395890  1
  C  C8  1  0.383900  0.045500  0.496620  1
  C  C9  1  0.547300  -0.003090  0.401950  1
  C  C10  1  0.452700  0.003090  0.598050  1
  C  C11  1  0.616100  -0.045500  0.503380  1
  C  C12  1  0.568000  -0.041820  0.604110  1
  C  C13  1  0.731400  -0.091680  0.510380  1
  C  C14  1  0.637800  -0.082890  0.706860  1
  C  C15  1  0.797100  -0.130920  0.610800  1
  C  C16  1  0.749700  -0.125470  0.710340  1
  C  C17  1  0.916300  -0.177900  0.638300  1
  C  C18  1  0.957000  -0.205400  0.748400  1
  C  C19  1  0.749700  0.625470  0.210340  1
  C  C20  1  0.797100  0.630920  0.110800  1
  C  C21  1  0.637800  0.582890  0.206860  1
  C  C22  1  0.916300  0.677900  0.138300  1
  C  C23  1  0.731400  0.591680  0.010380  1
  C  C24  1  0.957000  0.705400  0.248400  1
  C  C25  1  0.568000  0.541820  0.104110  1
  C  C26  1  0.616100  0.545500  0.003380  1
  C  C27  1  0.452700  0.496910  0.098050  1
  C  C28  1  0.547300  0.503090  -0.098050  1
  C  C29  1  0.383900  0.454500  -0.003380  1
  C  C30  1  0.432000  0.458180  -0.104110  1
  C  C31  1  0.268600  0.408320  -0.010380  1
  C  C32  1  0.362200  0.417110  -0.206860  1
  C  C33  1  0.202900  0.369080  -0.110800  1
  C  C34  1  0.250300  0.374530  -0.210340  1
  C  C35  1  0.083700  0.322100  -0.138300  1
  C  C36  1  0.043000  0.294600  -0.248400  1
  H  H37  1  0.395435  0.081698  0.214773  1
  H  H38  1  0.026393  0.192121  0.422000  1
  H  H39  1  0.229037  0.097216  0.564136  1
  H  H40  1  -0.050258  0.239025  0.233421  1
  H  H41  1  0.584451  -0.005087  0.325755  1
  H  H42  1  0.415549  0.005087  0.674245  1
  H  H43  1  0.770963  -0.097216  0.435864  1
  H  H44  1  0.604565  -0.081698  0.785227  1
  H  H45  1  0.973607  -0.192121  0.578000  1
  H  H46  1  1.050258  -0.239025  0.766579  1
  H  H47  1  0.604565  0.581698  0.285227  1
  H  H48  1  0.973607  0.692121  0.078000  1
  H  H49  1  0.770963  0.597216  -0.064136  1
  H  H50  1  1.050258  0.739025  0.266579  1
  H  H51  1  0.415549  0.494913  0.174245  1
  H  H52  1  0.584451  0.505087  -0.174245  1
  H  H53  1  0.229037  0.402784  0.064136  1
  H  H54  1  0.395435  0.418302  -0.285227  1
  H  H55  1  0.026393  0.307879  -0.078000  1
  H  H56  1  -0.050258  0.260975  -0.266579  1
  S  S57  1  0.151070  0.179260  0.170500  1
  S  S58  1  0.848930  -0.179260  0.829500  1
  S  S59  1  0.848930  0.679260  0.329500  1
  S  S60  1  0.151070  0.320740  -0.329500  1
