# generated using pymatgen
data_H5C9S
_symmetry_space_group_name_H-M   'P 1'
_cell_length_a   8.30390000
_cell_length_b   10.63990000
_cell_length_c   11.16450000
_cell_angle_alpha   97.48210000
_cell_angle_beta   99.47330000
_cell_angle_gamma   95.19980000
_symmetry_Int_Tables_number   1
_chemical_formula_structural   H5C9S
_chemical_formula_sum   'H10 C18 S2'
_cell_volume   958.32281861
_cell_formula_units_Z   2
loop_
 _symmetry_equiv_pos_site_id
 _symmetry_equiv_pos_as_xyz
  1  'x, y, z'
loop_
 _atom_site_type_symbol
 _atom_site_label
 _atom_site_symmetry_multiplicity
 _atom_site_fract_x
 _atom_site_fract_y
 _atom_site_fract_z
 _atom_site_occupancy
  C  C1  1  0.832000  0.539000  0.317000  1
  C  C2  1  0.867000  0.426000  0.367000  1
  C  C3  1  0.698000  0.596000  0.338000  1
  C  C4  1  1.012200  0.386400  0.314200  1
  C  C5  1  0.771000  0.375000  0.446000  1
  C  C6  1  1.064000  0.463000  0.236000  1
  C  C7  1  0.600500  0.549400  0.421000  1
  C  C8  1  0.638800  0.437100  0.475800  1
  C  C9  1  0.461400  0.608600  0.445500  1
  C  C10  1  0.538600  0.391400  0.554500  1
  C  C11  1  0.361200  0.562900  0.524200  1
  C  C12  1  0.399500  0.450600  0.579000  1
  C  C13  1  0.229000  0.625000  0.554000  1
  C  C14  1  0.302000  0.404000  0.662000  1
  C  C15  1  0.133000  0.574000  0.633000  1
  C  C16  1  0.168000  0.461000  0.683000  1
  C  C17  1  -0.012200  0.613600  0.685800  1
  C  C18  1  -0.064000  0.537000  0.764000  1
  H  H19  1  0.669440  0.677064  0.289487  1
  H  H20  1  1.078474  0.303948  0.332223  1
  H  H21  1  0.798993  0.287542  0.484045  1
  H  H22  1  1.166656  0.429743  0.194382  1
  H  H23  1  0.430301  0.692464  0.402169  1
  H  H24  1  0.569699  0.307536  0.597831  1
  H  H25  1  0.201007  0.712458  0.515955  1
  H  H26  1  0.330560  0.322936  0.710513  1
  H  H27  1  -0.078474  0.696052  0.667777  1
  H  H28  1  -0.166656  0.570257  0.805618  1
  S  S29  1  0.960600  0.589880  0.220720  1
  S  S30  1  0.039400  0.410120  0.779280  1
