# generated using pymatgen
data_H5C9S
_symmetry_space_group_name_H-M   'P 1'
_cell_length_a   14.77930000
_cell_length_b   17.63320000
_cell_length_c   20.40370000
_cell_angle_alpha   104.42600000
_cell_angle_beta   105.13500000
_cell_angle_gamma   105.49500000
_symmetry_Int_Tables_number   1
_chemical_formula_structural   H5C9S
_chemical_formula_sum   'H40 C72 S8'
_cell_volume   4646.62625252
_cell_formula_units_Z   8
loop_
 _symmetry_equiv_pos_site_id
 _symmetry_equiv_pos_as_xyz
  1  'x, y, z'
loop_
 _atom_site_type_symbol
 _atom_site_label
 _atom_site_symmetry_multiplicity
 _atom_site_fract_x
 _atom_site_fract_y
 _atom_site_fract_z
 _atom_site_occupancy
  C  C1  1  0.139700  0.858100  0.812600  1
  C  C2  1  0.129000  0.785700  0.834400  1
  C  C3  1  0.151200  0.857400  0.748500  1
  C  C4  1  0.119600  0.802400  0.904100  1
  C  C5  1  0.126900  0.713200  0.788600  1
  C  C6  1  0.123200  0.881000  0.933600  1
  C  C7  1  0.148600  0.782200  0.699900  1
  C  C8  1  0.134900  0.708600  0.720400  1
  C  C9  1  0.159000  0.778200  0.632400  1
  C  C10  1  0.131300  0.633300  0.671700  1
  C  C11  1  0.150600  0.702000  0.583000  1
  C  C12  1  0.136200  0.628200  0.603000  1
  C  C13  1  0.157000  0.697800  0.514100  1
  C  C14  1  0.127100  0.552100  0.552500  1
  C  C15  1  0.147900  0.623200  0.467800  1
  C  C16  1  0.132400  0.548800  0.485800  1
  C  C17  1  0.125000  0.479500  0.427100  1
  C  C18  1  0.137000  0.500700  0.369800  1
  C  C19  1  -0.139700  0.141900  0.187400  1
  C  C20  1  -0.129000  0.214300  0.165600  1
  C  C21  1  -0.151200  0.142600  0.251500  1
  C  C22  1  -0.119600  0.197600  0.095900  1
  C  C23  1  -0.126900  0.286800  0.211400  1
  C  C24  1  -0.123200  0.119000  0.066400  1
  C  C25  1  -0.148600  0.217800  0.300100  1
  C  C26  1  -0.134900  0.291400  0.279600  1
  C  C27  1  -0.159000  0.221800  0.367600  1
  C  C28  1  -0.131300  0.366700  0.328300  1
  C  C29  1  -0.150600  0.298000  0.417000  1
  C  C30  1  -0.136200  0.371800  0.397000  1
  C  C31  1  -0.157000  0.302200  0.485900  1
  C  C32  1  -0.127100  0.447900  0.447500  1
  C  C33  1  -0.147900  0.376800  0.532200  1
  C  C34  1  -0.132400  0.451200  0.514200  1
  C  C35  1  -0.125000  0.520500  0.572900  1
  C  C36  1  -0.137000  0.499300  0.630200  1
  C  C37  1  0.356300  1.035800  1.286500  1
  C  C38  1  0.351100  1.104300  1.262100  1
  C  C39  1  0.363800  0.966300  1.243100  1
  C  C40  1  0.344000  1.169500  1.316900  1
  C  C41  1  0.354600  1.102000  1.195400  1
  C  C42  1  0.342100  1.150300  1.377000  1
  C  C43  1  0.365200  0.961200  1.173400  1
  C  C44  1  0.361200  1.030600  1.149000  1
  C  C45  1  0.365600  0.887300  1.125700  1
  C  C46  1  0.364800  1.025900  1.079400  1
  C  C47  1  0.366600  0.881700  1.056400  1
  C  C48  1  0.370400  0.953300  1.033200  1
  C  C49  1  0.365300  0.807800  1.008100  1
  C  C50  1  0.376900  0.949100  0.964700  1
  C  C51  1  0.371200  0.806000  0.942400  1
  C  C52  1  0.378700  0.877400  0.920000  1
  C  C53  1  0.386500  0.860200  0.849400  1
  C  C54  1  0.384700  0.781800  0.820500  1
  C  C55  1  0.643700  0.964200  0.713500  1
  C  C56  1  0.648900  0.895700  0.737900  1
  C  C57  1  0.636200  1.033700  0.756900  1
  C  C58  1  0.656000  0.830500  0.683100  1
  C  C59  1  0.645400  0.898000  0.804600  1
  C  C60  1  0.657900  0.849700  0.623000  1
  C  C61  1  0.634800  1.038800  0.826600  1
  C  C62  1  0.638800  0.969400  0.851000  1
  C  C63  1  0.634400  1.112700  0.874300  1
  C  C64  1  0.635200  0.974100  0.920600  1
  C  C65  1  0.633400  1.118300  0.943600  1
  C  C66  1  0.629600  1.046700  0.966800  1
  C  C67  1  0.634700  1.192200  0.991900  1
  C  C68  1  0.623100  1.050900  1.035300  1
  C  C69  1  0.628800  1.194000  1.057600  1
  C  C70  1  0.621300  1.122600  1.080000  1
  C  C71  1  0.613500  1.139800  1.150600  1
  C  C72  1  0.615300  1.218200  1.179500  1
  H  H73  1  0.162266  0.915871  0.736335  1
  H  H74  1  0.110206  0.757671  0.933148  1
  H  H75  1  0.118792  0.658690  0.806583  1
  H  H76  1  0.115840  0.892008  0.987127  1
  H  H77  1  0.173873  0.835320  0.618081  1
  H  H78  1  0.124534  0.577425  0.687619  1
  H  H79  1  0.169073  0.752633  0.496497  1
  H  H80  1  0.115622  0.494074  0.565412  1
  H  H81  1  0.111103  0.414673  0.426097  1
  H  H82  1  0.131887  0.447252  0.325605  1
  H  H83  1  -0.162266  0.084129  0.263665  1
  H  H84  1  -0.110206  0.242329  0.066852  1
  H  H85  1  -0.118792  0.341310  0.193417  1
  H  H86  1  -0.115840  0.107992  0.012873  1
  H  H87  1  -0.173873  0.164680  0.381919  1
  H  H88  1  -0.124534  0.422575  0.312381  1
  H  H89  1  -0.169073  0.247367  0.503503  1
  H  H90  1  -0.115622  0.505926  0.434588  1
  H  H91  1  -0.111103  0.585327  0.573903  1
  H  H92  1  -0.131887  0.552748  0.674395  1
  H  H93  1  0.368644  0.915158  1.263986  1
  H  H94  1  0.340284  1.229813  1.313113  1
  H  H95  1  0.352145  1.156718  1.179325  1
  H  H96  1  0.336716  1.200787  1.418375  1
  H  H97  1  0.365122  0.832875  1.142912  1
  H  H98  1  0.363228  1.079268  1.061008  1
  H  H99  1  0.359593  0.750653  1.021891  1
  H  H100  1  0.380632  1.002703  0.945800  1
  H  H101  1  0.393392  0.904140  0.819461  1
  H  H102  1  0.391049  0.770182  0.766649  1
  H  H103  1  0.631356  1.084842  0.736014  1
  H  H104  1  0.659716  0.770187  0.686887  1
  H  H105  1  0.647855  0.843282  0.820675  1
  H  H106  1  0.663284  0.799213  0.581625  1
  H  H107  1  0.634878  1.167125  0.857088  1
  H  H108  1  0.636772  0.920732  0.938992  1
  H  H109  1  0.640407  1.249347  0.978109  1
  H  H110  1  0.619368  0.997297  1.054200  1
  H  H111  1  0.606608  1.095860  1.180539  1
  H  H112  1  0.608951  1.229818  1.233351  1
  S  S113  1  0.138440  0.942190  0.878440  1
  S  S114  1  0.157100  0.606580  0.382520  1
  S  S115  1  -0.138440  0.057810  0.121560  1
  S  S116  1  -0.157100  0.393420  0.617480  1
  S  S117  1  0.348720  1.051200  1.371620  1
  S  S118  1  0.372850  0.721790  0.876840  1
  S  S119  1  0.651280  0.948800  0.628380  1
  S  S120  1  0.627150  1.278210  1.123160  1
