# generated using pymatgen
data_H(C6O)2
_symmetry_space_group_name_H-M   'P 1'
_cell_length_a   17.99800000
_cell_length_b   17.78100000
_cell_length_c   25.76500000
_cell_angle_alpha   90.00000000
_cell_angle_beta   99.70600000
_cell_angle_gamma   90.00000000
_symmetry_Int_Tables_number   1
_chemical_formula_structural   H(C6O)2
_chemical_formula_sum   'H16 C192 O32'
_cell_volume   8127.35228459
_cell_formula_units_Z   16
loop_
 _symmetry_equiv_pos_site_id
 _symmetry_equiv_pos_as_xyz
  1  'x, y, z'
loop_
 _atom_site_type_symbol
 _atom_site_label
 _atom_site_symmetry_multiplicity
 _atom_site_fract_x
 _atom_site_fract_y
 _atom_site_fract_z
 _atom_site_occupancy
  C  C1  1  0.863600  0.575300  0.264400  1
  C  C2  1  0.820900  0.590200  0.304100  1
  C  C3  1  0.882500  0.505200  0.249300  1
  C  C4  1  0.791100  0.535700  0.331500  1
  C  C5  1  0.857700  0.706400  0.273600  1
  C  C6  1  0.851100  0.445000  0.277100  1
  C  C7  1  0.806000  0.459800  0.315900  1
  C  C8  1  0.866000  0.371000  0.263800  1
  C  C9  1  0.776900  0.399800  0.342200  1
  C  C10  1  0.837900  0.307600  0.289300  1
  C  C11  1  0.791300  0.324500  0.329000  1
  C  C12  1  0.852300  0.232700  0.276300  1
  C  C13  1  0.761000  0.263400  0.354000  1
  C  C14  1  0.823800  0.174200  0.303300  1
  C  C15  1  0.776800  0.187700  0.343300  1
  C  C16  1  0.836500  0.095600  0.290700  1
  C  C17  1  0.747500  0.127200  0.369100  1
  C  C18  1  0.805800  0.037900  0.317300  1
  C  C19  1  0.760100  0.052100  0.356200  1
  C  C20  1  0.824300  -0.036400  0.304500  1
  C  C21  1  0.733200  -0.007400  0.385200  1
  C  C22  1  0.795400  -0.092000  0.331000  1
  C  C23  1  0.749000  -0.076700  0.371600  1
  C  C24  1  0.758500  -0.208600  0.363300  1
  C  C25  1  0.636400  1.075300  0.235600  1
  C  C26  1  0.679100  1.090200  0.195900  1
  C  C27  1  0.617500  1.005200  0.250700  1
  C  C28  1  0.708900  1.035700  0.168500  1
  C  C29  1  0.642300  1.206400  0.226400  1
  C  C30  1  0.648900  0.945000  0.222900  1
  C  C31  1  0.694000  0.959800  0.184100  1
  C  C32  1  0.634000  0.871000  0.236200  1
  C  C33  1  0.723100  0.899800  0.157800  1
  C  C34  1  0.662100  0.807600  0.210700  1
  C  C35  1  0.708700  0.824500  0.171000  1
  C  C36  1  0.647700  0.732700  0.223700  1
  C  C37  1  0.739000  0.763400  0.146000  1
  C  C38  1  0.676200  0.674200  0.196700  1
  C  C39  1  0.723200  0.687700  0.156700  1
  C  C40  1  0.663500  0.595600  0.209300  1
  C  C41  1  0.752500  0.627200  0.130900  1
  C  C42  1  0.694200  0.537900  0.182700  1
  C  C43  1  0.739900  0.552100  0.143800  1
  C  C44  1  0.675700  0.463600  0.195500  1
  C  C45  1  0.766800  0.492600  0.114800  1
  C  C46  1  0.704600  0.408000  0.169000  1
  C  C47  1  0.751000  0.423300  0.128400  1
  C  C48  1  0.741500  0.291400  0.136700  1
  C  C49  1  1.136400  -0.575300  0.735600  1
  C  C50  1  1.179100  -0.590200  0.695900  1
  C  C51  1  1.117500  -0.505200  0.750700  1
  C  C52  1  1.208900  -0.535700  0.668500  1
  C  C53  1  1.142300  -0.706400  0.726400  1
  C  C54  1  1.148900  -0.445000  0.722900  1
  C  C55  1  1.194000  -0.459800  0.684100  1
  C  C56  1  1.134000  -0.371000  0.736200  1
  C  C57  1  1.223100  -0.399800  0.657800  1
  C  C58  1  1.162100  -0.307600  0.710700  1
  C  C59  1  1.208700  -0.324500  0.671000  1
  C  C60  1  1.147700  -0.232700  0.723700  1
  C  C61  1  1.239000  -0.263400  0.646000  1
  C  C62  1  1.176200  -0.174200  0.696700  1
  C  C63  1  1.223200  -0.187700  0.656700  1
  C  C64  1  1.163500  -0.095600  0.709300  1
  C  C65  1  1.252500  -0.127200  0.630900  1
  C  C66  1  1.194200  -0.037900  0.682700  1
  C  C67  1  1.239900  -0.052100  0.643800  1
  C  C68  1  1.175700  0.036400  0.695500  1
  C  C69  1  1.266800  0.007400  0.614800  1
  C  C70  1  1.204600  0.092000  0.669000  1
  C  C71  1  1.251000  0.076700  0.628400  1
  C  C72  1  1.241500  0.208600  0.636700  1
  C  C73  1  0.363600  -0.075300  -0.235600  1
  C  C74  1  0.320900  -0.090200  -0.195900  1
  C  C75  1  0.382500  -0.005200  -0.250700  1
  C  C76  1  0.291100  -0.035700  -0.168500  1
  C  C77  1  0.357700  -0.206400  -0.226400  1
  C  C78  1  0.351100  0.055000  -0.222900  1
  C  C79  1  0.306000  0.040200  -0.184100  1
  C  C80  1  0.366000  0.129000  -0.236200  1
  C  C81  1  0.276900  0.100200  -0.157800  1
  C  C82  1  0.337900  0.192400  -0.210700  1
  C  C83  1  0.291300  0.175500  -0.171000  1
  C  C84  1  0.352300  0.267300  -0.223700  1
  C  C85  1  0.261000  0.236600  -0.146000  1
  C  C86  1  0.323800  0.325800  -0.196700  1
  C  C87  1  0.276800  0.312300  -0.156700  1
  C  C88  1  0.336500  0.404400  -0.209300  1
  C  C89  1  0.247500  0.372800  -0.130900  1
  C  C90  1  0.305800  0.462100  -0.182700  1
  C  C91  1  0.260100  0.447900  -0.143800  1
  C  C92  1  0.324300  0.536400  -0.195500  1
  C  C93  1  0.233200  0.507400  -0.114800  1
  C  C94  1  0.295400  0.592000  -0.169000  1
  C  C95  1  0.249000  0.576700  -0.128400  1
  C  C96  1  0.258500  0.708600  -0.136700  1
  C  C97  1  0.979700  -0.551300  0.394300  1
  C  C98  1  0.938300  -0.565600  0.434700  1
  C  C99  1  0.997000  -0.480200  0.380300  1
  C  C100  1  0.909500  -0.512900  0.464600  1
  C  C101  1  0.973700  -0.682400  0.402700  1
  C  C102  1  0.967800  -0.420900  0.408600  1
  C  C103  1  0.925500  -0.435300  0.448500  1
  C  C104  1  0.980400  -0.346100  0.393800  1
  C  C105  1  0.899400  -0.378300  0.477200  1
  C  C106  1  0.954900  -0.285000  0.420800  1
  C  C107  1  0.911200  -0.300200  0.462500  1
  C  C108  1  0.969500  -0.209500  0.407100  1
  C  C109  1  0.885700  -0.241700  0.489800  1
  C  C110  1  0.942800  -0.148300  0.436500  1
  C  C111  1  0.898700  -0.163700  0.476800  1
  C  C112  1  0.954600  -0.073500  0.422000  1
  C  C113  1  0.868500  -0.104800  0.502700  1
  C  C114  1  0.927700  -0.014800  0.450300  1
  C  C115  1  0.880900  -0.029800  0.489400  1
  C  C116  1  0.945100  0.063700  0.436200  1
  C  C117  1  0.848600  0.030600  0.515700  1
  C  C118  1  0.912000  0.117500  0.462800  1
  C  C119  1  0.865600  0.101700  0.500800  1
  C  C120  1  0.873000  0.231500  0.492900  1
  C  C121  1  0.520300  -0.051300  0.105700  1
  C  C122  1  0.561700  -0.065600  0.065300  1
  C  C123  1  0.503000  0.019800  0.119700  1
  C  C124  1  0.590500  -0.012900  0.035400  1
  C  C125  1  0.526300  -0.182400  0.097300  1
  C  C126  1  0.532200  0.079100  0.091400  1
  C  C127  1  0.574500  0.064700  0.051500  1
  C  C128  1  0.519600  0.153900  0.106200  1
  C  C129  1  0.600600  0.121700  0.022800  1
  C  C130  1  0.545100  0.215000  0.079200  1
  C  C131  1  0.588800  0.199800  0.037500  1
  C  C132  1  0.530500  0.290500  0.092900  1
  C  C133  1  0.614300  0.258300  0.010200  1
  C  C134  1  0.557200  0.351700  0.063500  1
  C  C135  1  0.601300  0.336300  0.023200  1
  C  C136  1  0.545400  0.426500  0.078000  1
  C  C137  1  0.631500  0.395200  -0.002700  1
  C  C138  1  0.572300  0.485200  0.049700  1
  C  C139  1  0.619100  0.470200  0.010600  1
  C  C140  1  0.554900  0.563700  0.063800  1
  C  C141  1  0.651400  0.530600  -0.015700  1
  C  C142  1  0.588000  0.617500  0.037200  1
  C  C143  1  0.634400  0.601700  -0.000800  1
  C  C144  1  0.627000  0.731500  0.007100  1
  C  C145  1  1.020300  0.551300  0.605700  1
  C  C146  1  1.061700  0.565600  0.565300  1
  C  C147  1  1.003000  0.480200  0.619700  1
  C  C148  1  1.090500  0.512900  0.535400  1
  C  C149  1  1.026300  0.682400  0.597300  1
  C  C150  1  1.032200  0.420900  0.591400  1
  C  C151  1  1.074500  0.435300  0.551500  1
  C  C152  1  1.019600  0.346100  0.606200  1
  C  C153  1  1.100600  0.378300  0.522800  1
  C  C154  1  1.045100  0.285000  0.579200  1
  C  C155  1  1.088800  0.300200  0.537500  1
  C  C156  1  1.030500  0.209500  0.592900  1
  C  C157  1  1.114300  0.241700  0.510200  1
  C  C158  1  1.057200  0.148300  0.563500  1
  C  C159  1  1.101300  0.163700  0.523200  1
  C  C160  1  1.045400  0.073500  0.578000  1
  C  C161  1  1.131500  0.104800  0.497300  1
  C  C162  1  1.072300  0.014800  0.549700  1
  C  C163  1  1.119100  0.029800  0.510600  1
  C  C164  1  1.054900  -0.063700  0.563800  1
  C  C165  1  1.151400  -0.030600  0.484300  1
  C  C166  1  1.088000  -0.117500  0.537200  1
  C  C167  1  1.134400  -0.101700  0.499200  1
  C  C168  1  1.127000  -0.231500  0.507100  1
  C  C169  1  0.479700  1.051300  -0.105700  1
  C  C170  1  0.438300  1.065600  -0.065300  1
  C  C171  1  0.497000  0.980200  -0.119700  1
  C  C172  1  0.409500  1.012900  -0.035400  1
  C  C173  1  0.473700  1.182400  -0.097300  1
  C  C174  1  0.467800  0.920900  -0.091400  1
  C  C175  1  0.425500  0.935300  -0.051500  1
  C  C176  1  0.480400  0.846100  -0.106200  1
  C  C177  1  0.399400  0.878300  -0.022800  1
  C  C178  1  0.454900  0.785000  -0.079200  1
  C  C179  1  0.411200  0.800200  -0.037500  1
  C  C180  1  0.469500  0.709500  -0.092900  1
  C  C181  1  0.385700  0.741700  -0.010200  1
  C  C182  1  0.442800  0.648300  -0.063500  1
  C  C183  1  0.398700  0.663700  -0.023200  1
  C  C184  1  0.454600  0.573500  -0.078000  1
  C  C185  1  0.368500  0.604800  0.002700  1
  C  C186  1  0.427700  0.514800  -0.049700  1
  C  C187  1  0.380900  0.529800  -0.010600  1
  C  C188  1  0.445100  0.436300  -0.063800  1
  C  C189  1  0.348600  0.469400  0.015700  1
  C  C190  1  0.412000  0.382500  -0.037200  1
  C  C191  1  0.365600  0.398300  0.000800  1
  C  C192  1  0.373000  0.268500  -0.007100  1
  H  H193  1  0.885572  0.219981  0.245277  1
  H  H194  1  0.723810  0.275178  0.382800  1
  H  H195  1  0.614428  0.719981  0.254723  1
  H  H196  1  0.776190  0.775178  0.117200  1
  H  H197  1  1.114428  -0.219981  0.754723  1
  H  H198  1  1.276190  -0.275178  0.617200  1
  H  H199  1  0.385572  0.280019  -0.254723  1
  H  H200  1  0.223810  0.224822  -0.117200  1
  H  H201  1  1.000638  -0.198719  0.374605  1
  H  H202  1  0.855145  -0.257176  0.521783  1
  H  H203  1  0.499362  0.301281  0.125395  1
  H  H204  1  0.644855  0.242824  -0.021783  1
  H  H205  1  0.999362  0.198719  0.625395  1
  H  H206  1  1.144855  0.257176  0.478217  1
  H  H207  1  0.500638  0.698719  -0.125395  1
  H  H208  1  0.355145  0.757176  0.021783  1
  O  O209  1  0.885200  0.642200  0.244500  1
  O  O210  1  0.815600  0.667100  0.309700  1
  O  O211  1  0.800200  -0.170000  0.326700  1
  O  O212  1  0.727700  -0.145600  0.389400  1
  O  O213  1  0.614800  1.142200  0.255500  1
  O  O214  1  0.684400  1.167100  0.190300  1
  O  O215  1  0.699800  0.330000  0.173300  1
  O  O216  1  0.772300  0.354400  0.110600  1
  O  O217  1  1.114800  -0.642200  0.755500  1
  O  O218  1  1.184400  -0.667100  0.690300  1
  O  O219  1  1.199800  0.170000  0.673300  1
  O  O220  1  1.272300  0.145600  0.610600  1
  O  O221  1  0.385200  -0.142200  -0.255500  1
  O  O222  1  0.315600  -0.167100  -0.190300  1
  O  O223  1  0.300200  0.670000  -0.173300  1
  O  O224  1  0.227700  0.645600  -0.110600  1
  O  O225  1  1.001100  -0.618500  0.374700  1
  O  O226  1  0.931600  -0.644100  0.440100  1
  O  O227  1  0.918400  0.195700  0.459600  1
  O  O228  1  0.840100  0.168600  0.520500  1
  O  O229  1  0.498900  -0.118500  0.125300  1
  O  O230  1  0.568400  -0.144100  0.059900  1
  O  O231  1  0.581600  0.695700  0.040400  1
  O  O232  1  0.659900  0.668600  -0.020500  1
  O  O233  1  0.998900  0.618500  0.625300  1
  O  O234  1  1.068400  0.644100  0.559900  1
  O  O235  1  1.081600  -0.195700  0.540400  1
  O  O236  1  1.159900  -0.168600  0.479500  1
  O  O237  1  0.501100  1.118500  -0.125300  1
  O  O238  1  0.431600  1.144100  -0.059900  1
  O  O239  1  0.418400  0.304300  -0.040400  1
  O  O240  1  0.340100  0.331400  0.020500  1
