# generated using pymatgen
data_H5C9S
_symmetry_space_group_name_H-M   'P 1'
_cell_length_a   7.90280000
_cell_length_b   10.48730000
_cell_length_c   10.84120000
_cell_angle_alpha   76.32180000
_cell_angle_beta   88.43910000
_cell_angle_gamma   88.96300000
_symmetry_Int_Tables_number   1
_chemical_formula_structural   H5C9S
_chemical_formula_sum   'H10 C18 S2'
_cell_volume   872.63894292
_cell_formula_units_Z   2
loop_
 _symmetry_equiv_pos_site_id
 _symmetry_equiv_pos_as_xyz
  1  'x, y, z'
loop_
 _atom_site_type_symbol
 _atom_site_label
 _atom_site_symmetry_multiplicity
 _atom_site_fract_x
 _atom_site_fract_y
 _atom_site_fract_z
 _atom_site_occupancy
  C  C1  1  0.576100  0.864200  0.109660  1
  C  C2  1  0.618500  0.793820  0.014700  1
  C  C3  1  0.685700  0.953260  0.136230  1
  C  C4  1  0.471600  0.705500  0.021600  1
  C  C5  1  0.768700  0.815910  -0.052100  1
  C  C6  1  0.340900  0.722000  0.111700  1
  C  C7  1  0.842800  0.977300  0.069400  1
  C  C8  1  0.885400  0.907380  -0.027160  1
  C  C9  1  0.958200  1.068730  0.094350  1
  C  C10  1  1.041800  0.931270  -0.094350  1
  C  C11  1  1.114600  1.092620  0.027160  1
  C  C12  1  1.157200  1.022700  -0.069400  1
  C  C13  1  1.231300  1.184090  0.052100  1
  C  C14  1  1.314300  1.046740  -0.136230  1
  C  C15  1  1.381500  1.206180  -0.014700  1
  C  C16  1  1.423900  1.135800  -0.109660  1
  C  C17  1  1.528400  1.294500  -0.021600  1
  C  C18  1  1.659100  1.278000  -0.111700  1
  H  H19  1  0.648068  1.004773  0.210227  1
  H  H20  1  0.460372  0.632848  -0.036067  1
  H  H21  1  0.795366  0.760683  -0.125126  1
  H  H22  1  0.226339  0.662384  0.119003  1
  H  H23  1  0.925594  1.122442  0.167626  1
  H  H24  1  1.074406  0.877558  -0.167626  1
  H  H25  1  1.204634  1.239317  0.125126  1
  H  H26  1  1.351932  0.995227  -0.210227  1
  H  H27  1  1.539628  1.367152  0.036067  1
  H  H28  1  1.773661  1.337616  -0.119003  1
  S  S29  1  0.376960  0.825280  0.191170  1
  S  S30  1  1.623040  1.174720  -0.191170  1
