# generated using pymatgen
data_H7C11
_symmetry_space_group_name_H-M   'P 1'
_cell_length_a   7.56500000
_cell_length_b   7.75000000
_cell_length_c   16.83500000
_cell_angle_alpha   89.15000000
_cell_angle_beta   78.42000000
_cell_angle_gamma   83.63000000
_symmetry_Int_Tables_number   1
_chemical_formula_structural   H7C11
_chemical_formula_sum   'H14 C22'
_cell_volume   960.92700710
_cell_formula_units_Z   2
loop_
 _symmetry_equiv_pos_site_id
 _symmetry_equiv_pos_as_xyz
  1  'x, y, z'
loop_
 _atom_site_type_symbol
 _atom_site_label
 _atom_site_symmetry_multiplicity
 _atom_site_fract_x
 _atom_site_fract_y
 _atom_site_fract_z
 _atom_site_occupancy
  C  C1  1  0.446600  0.938100  0.080030  1
  C  C2  1  0.319900  1.045400  0.044650  1
  C  C3  1  0.626500  0.893100  0.037310  1
  C  C4  1  0.373500  1.106900  -0.037310  1
  C  C5  1  0.140700  1.092200  0.086080  1
  C  C6  1  0.680100  0.954600  -0.044650  1
  C  C7  1  0.756800  0.790800  0.071940  1
  C  C8  1  0.553400  1.061900  -0.080030  1
  C  C9  1  0.243200  1.209200  -0.071940  1
  C  C10  1  0.014200  1.193100  0.051410  1
  C  C11  1  0.859300  0.907800  -0.086080  1
  C  C12  1  0.933300  0.748000  0.030620  1
  C  C13  1  0.066700  1.252000  -0.030620  1
  C  C14  1  -0.168200  1.239700  0.093520  1
  C  C15  1  0.985800  0.806900  -0.051410  1
  C  C16  1  1.066900  0.645200  0.065600  1
  C  C17  1  -0.066900  1.354800  -0.065600  1
  C  C18  1  -0.288900  1.337400  0.057750  1
  C  C19  1  1.168200  0.760300  -0.093520  1
  C  C20  1  1.237200  0.604900  0.023230  1
  C  C21  1  -0.237200  1.395100  -0.023230  1
  C  C22  1  1.288900  0.662600  -0.057750  1
  H  H23  1  0.404538  0.888843  0.141779  1
  H  H24  1  0.097397  1.047747  0.148610  1
  H  H25  1  0.719010  0.742131  0.134064  1
  H  H26  1  0.595462  1.111157  -0.141779  1
  H  H27  1  0.280990  1.257869  -0.134064  1
  H  H28  1  0.902603  0.952253  -0.148610  1
  H  H29  1  -0.217783  1.198635  0.156106  1
  H  H30  1  1.037405  0.594970  0.127764  1
  H  H31  1  -0.037405  1.405030  -0.127764  1
  H  H32  1  -0.426657  1.369362  0.093875  1
  H  H33  1  1.217783  0.801365  -0.156106  1
  H  H34  1  1.332536  0.526124  0.054266  1
  H  H35  1  -0.332536  1.473876  -0.054266  1
  H  H36  1  1.426657  0.630638  -0.093875  1
