# generated using pymatgen
data_H2C3
_symmetry_space_group_name_H-M   'P 1'
_cell_length_a   32.07120000
_cell_length_b   14.25990000
_cell_length_c   8.29370000
_cell_angle_alpha   90.00000000
_cell_angle_beta   98.27120000
_cell_angle_gamma   90.00000000
_symmetry_Int_Tables_number   1
_chemical_formula_structural   H2C3
_chemical_formula_sum   'H48 C72'
_cell_volume   3753.52160433
_cell_formula_units_Z   24
loop_
 _symmetry_equiv_pos_site_id
 _symmetry_equiv_pos_as_xyz
  1  'x, y, z'
loop_
 _atom_site_type_symbol
 _atom_site_label
 _atom_site_symmetry_multiplicity
 _atom_site_fract_x
 _atom_site_fract_y
 _atom_site_fract_z
 _atom_site_occupancy
  C  C1  1  0.037540  0.256230  0.677920  1
  C  C2  1  0.018950  0.343310  0.712910  1
  C  C3  1  0.018990  0.171110  0.713630  1
  C  C4  1  -0.018950  0.343310  0.787090  1
  C  C5  1  0.036480  0.429400  0.675020  1
  C  C6  1  -0.018990  0.171110  0.786370  1
  C  C7  1  0.036890  0.083030  0.679000  1
  C  C8  1  -0.037540  0.256230  0.822080  1
  C  C9  1  -0.036480  0.429400  0.824980  1
  C  C10  1  0.018540  0.513820  0.710200  1
  C  C11  1  -0.036890  0.083030  0.821000  1
  C  C12  1  0.018650  0.001650  0.713800  1
  C  C13  1  -0.018540  0.513820  0.789800  1
  C  C14  1  0.035130  0.601990  0.670400  1
  C  C15  1  -0.018650  0.001650  0.786200  1
  C  C16  1  -0.035130  0.601990  0.829600  1
  C  C17  1  0.017750  0.683400  0.708500  1
  C  C18  1  -0.017750  0.683400  0.791500  1
  C  C19  1  0.537540  -0.243770  0.677920  1
  C  C20  1  0.518950  -0.156690  0.712910  1
  C  C21  1  0.518990  -0.328890  0.713630  1
  C  C22  1  0.481050  -0.156690  0.787090  1
  C  C23  1  0.536480  -0.070600  0.675020  1
  C  C24  1  0.481010  -0.328890  0.786370  1
  C  C25  1  0.536890  -0.416970  0.679000  1
  C  C26  1  0.462460  -0.243770  0.822080  1
  C  C27  1  0.463520  -0.070600  0.824980  1
  C  C28  1  0.518540  0.013820  0.710200  1
  C  C29  1  0.463110  -0.416970  0.821000  1
  C  C30  1  0.518650  -0.498350  0.713800  1
  C  C31  1  0.481460  0.013820  0.789800  1
  C  C32  1  0.535130  0.101990  0.670400  1
  C  C33  1  0.481350  -0.498350  0.786200  1
  C  C34  1  0.464870  0.101990  0.829600  1
  C  C35  1  0.517750  0.183400  0.708500  1
  C  C36  1  0.482250  0.183400  0.791500  1
  C  C37  1  -0.037540  0.743770  0.322080  1
  C  C38  1  -0.018950  0.656690  0.287090  1
  C  C39  1  -0.018990  0.828890  0.286370  1
  C  C40  1  0.018950  0.656690  0.212910  1
  C  C41  1  -0.036480  0.570600  0.324980  1
  C  C42  1  0.018990  0.828890  0.213630  1
  C  C43  1  -0.036890  0.916970  0.321000  1
  C  C44  1  0.037540  0.743770  0.177920  1
  C  C45  1  0.036480  0.570600  0.175020  1
  C  C46  1  -0.018540  0.486180  0.289800  1
  C  C47  1  0.036890  0.916970  0.179000  1
  C  C48  1  -0.018650  0.998350  0.286200  1
  C  C49  1  0.018540  0.486180  0.210200  1
  C  C50  1  -0.035130  0.398010  0.329600  1
  C  C51  1  0.018650  0.998350  0.213800  1
  C  C52  1  0.035130  0.398010  0.170400  1
  C  C53  1  -0.017750  0.316600  0.291500  1
  C  C54  1  0.017750  0.316600  0.208500  1
  C  C55  1  0.462460  0.243770  1.322080  1
  C  C56  1  0.481050  0.156690  1.287090  1
  C  C57  1  0.481010  0.328890  1.286370  1
  C  C58  1  0.518950  0.156690  1.212910  1
  C  C59  1  0.463520  0.070600  1.324980  1
  C  C60  1  0.518990  0.328890  1.213630  1
  C  C61  1  0.463110  0.416970  1.321000  1
  C  C62  1  0.537540  0.243770  1.177920  1
  C  C63  1  0.536480  0.070600  1.175020  1
  C  C64  1  0.481460  -0.013820  1.289800  1
  C  C65  1  0.536890  0.416970  1.179000  1
  C  C66  1  0.481350  0.498350  1.286200  1
  C  C67  1  0.518540  -0.013820  1.210200  1
  C  C68  1  0.464870  -0.101990  1.329600  1
  C  C69  1  0.518650  0.498350  1.213800  1
  C  C70  1  0.535130  -0.101990  1.170400  1
  C  C71  1  0.482250  -0.183400  1.291500  1
  C  C72  1  0.517750  -0.183400  1.208500  1
  H  H73  1  0.066689  0.254692  0.622431  1
  H  H74  1  0.065087  0.430747  0.616088  1
  H  H75  1  0.065913  0.077649  0.623242  1
  H  H76  1  -0.066689  0.254692  0.877569  1
  H  H77  1  -0.065087  0.430747  0.883912  1
  H  H78  1  -0.065913  0.077649  0.876758  1
  H  H79  1  0.033972  -0.063769  0.683574  1
  H  H80  1  0.062858  0.607508  0.606815  1
  H  H81  1  -0.033972  -0.063769  0.816426  1
  H  H82  1  -0.062858  0.607508  0.893185  1
  H  H83  1  0.032262  0.748602  0.672539  1
  H  H84  1  -0.032262  0.748602  0.827461  1
  H  H85  1  0.566689  -0.245308  0.622431  1
  H  H86  1  0.565087  -0.069253  0.616088  1
  H  H87  1  0.565913  -0.422351  0.623242  1
  H  H88  1  0.433311  -0.245308  0.877569  1
  H  H89  1  0.434913  -0.069253  0.883912  1
  H  H90  1  0.434087  -0.422351  0.876758  1
  H  H91  1  0.533972  -0.563769  0.683574  1
  H  H92  1  0.562858  0.107508  0.606815  1
  H  H93  1  0.466028  -0.563769  0.816426  1
  H  H94  1  0.437142  0.107508  0.893185  1
  H  H95  1  0.532262  0.248602  0.672539  1
  H  H96  1  0.467738  0.248602  0.827461  1
  H  H97  1  -0.066689  0.745308  0.377569  1
  H  H98  1  -0.065087  0.569253  0.383912  1
  H  H99  1  -0.065913  0.922351  0.376758  1
  H  H100  1  0.066689  0.745308  0.122431  1
  H  H101  1  0.065087  0.569253  0.116088  1
  H  H102  1  0.065913  0.922351  0.123242  1
  H  H103  1  -0.033972  1.063769  0.316426  1
  H  H104  1  -0.062858  0.392492  0.393185  1
  H  H105  1  0.033972  1.063769  0.183574  1
  H  H106  1  0.062858  0.392492  0.106815  1
  H  H107  1  -0.032262  0.251398  0.327461  1
  H  H108  1  0.032262  0.251398  0.172539  1
  H  H109  1  0.433311  0.245308  1.377569  1
  H  H110  1  0.434913  0.069253  1.383912  1
  H  H111  1  0.434087  0.422351  1.376758  1
  H  H112  1  0.566689  0.245308  1.122431  1
  H  H113  1  0.565087  0.069253  1.116088  1
  H  H114  1  0.565913  0.422351  1.123242  1
  H  H115  1  0.466028  0.563769  1.316426  1
  H  H116  1  0.437142  -0.107508  1.393185  1
  H  H117  1  0.533972  0.563769  1.183574  1
  H  H118  1  0.562858  -0.107508  1.106815  1
  H  H119  1  0.467738  -0.248602  1.327461  1
  H  H120  1  0.532262  -0.248602  1.172539  1
