# generated using pymatgen
data_H5C9S
_symmetry_space_group_name_H-M   'P 1'
_cell_length_a   7.32610000
_cell_length_b   33.40450000
_cell_length_c   7.20590000
_cell_angle_alpha   90.00000000
_cell_angle_beta   107.51540000
_cell_angle_gamma   90.00000000
_symmetry_Int_Tables_number   1
_chemical_formula_structural   H5C9S
_chemical_formula_sum   'H20 C36 S4'
_cell_volume   1681.70079085
_cell_formula_units_Z   4
loop_
 _symmetry_equiv_pos_site_id
 _symmetry_equiv_pos_as_xyz
  1  'x, y, z'
loop_
 _atom_site_type_symbol
 _atom_site_label
 _atom_site_symmetry_multiplicity
 _atom_site_fract_x
 _atom_site_fract_y
 _atom_site_fract_z
 _atom_site_occupancy
  C  C1  1  0.812900  0.554460  0.927100  1
  C  C2  1  0.787000  0.517310  1.015800  1
  C  C3  1  0.727500  0.561190  0.733800  1
  C  C4  1  0.880000  0.516900  1.219000  1
  C  C5  1  0.679800  0.487690  0.905100  1
  C  C6  1  0.975900  0.551690  1.277900  1
  C  C7  1  0.611300  0.531000  0.615600  1
  C  C8  1  0.590500  0.493150  0.702400  1
  C  C9  1  0.518700  0.537270  0.416600  1
  C  C10  1  0.481300  0.462730  0.583400  1
  C  C11  1  0.409500  0.506850  0.297600  1
  C  C12  1  0.388700  0.469000  0.384400  1
  C  C13  1  0.320200  0.512310  0.094900  1
  C  C14  1  0.272500  0.438810  0.266200  1
  C  C15  1  0.213000  0.482690  -0.015800  1
  C  C16  1  0.187100  0.445540  0.072900  1
  C  C17  1  0.120000  0.483100  -0.219000  1
  C  C18  1  0.024100  0.448310  -0.277900  1
  C  C19  1  0.187100  0.054460  -0.427100  1
  C  C20  1  0.213000  0.017310  -0.515800  1
  C  C21  1  0.272500  0.061190  -0.233800  1
  C  C22  1  0.120000  0.016900  -0.719000  1
  C  C23  1  0.320200  -0.012310  -0.405100  1
  C  C24  1  0.024100  0.051690  -0.777900  1
  C  C25  1  0.388700  0.031000  -0.115600  1
  C  C26  1  0.409500  -0.006850  -0.202400  1
  C  C27  1  0.481300  0.037270  0.083400  1
  C  C28  1  0.518700  -0.037270  -0.083400  1
  C  C29  1  0.590500  0.006850  0.202400  1
  C  C30  1  0.611300  -0.031000  0.115600  1
  C  C31  1  0.679800  0.012310  0.405100  1
  C  C32  1  0.727500  -0.061190  0.233800  1
  C  C33  1  0.787000  -0.017310  0.515800  1
  C  C34  1  0.812900  -0.054460  0.427100  1
  C  C35  1  0.880000  -0.016900  0.719000  1
  C  C36  1  0.975900  -0.051690  0.777900  1
  H  H37  1  0.751835  0.590361  0.674463  1
  H  H38  1  0.877973  0.492301  1.319843  1
  H  H39  1  0.665448  0.459563  0.978864  1
  H  H40  1  1.047853  0.551125  1.435671  1
  H  H41  1  0.531977  0.566616  0.352614  1
  H  H42  1  0.468023  0.433384  0.647386  1
  H  H43  1  0.334552  0.540437  0.021136  1
  H  H44  1  0.248165  0.409639  0.325537  1
  H  H45  1  0.122027  0.507699  -0.319843  1
  H  H46  1  -0.047853  0.448875  -0.435671  1
  H  H47  1  0.248165  0.090361  -0.174463  1
  H  H48  1  0.122027  -0.007699  -0.819843  1
  H  H49  1  0.334552  -0.040437  -0.478864  1
  H  H50  1  -0.047853  0.051125  -0.935671  1
  H  H51  1  0.468023  0.066616  0.147386  1
  H  H52  1  0.531977  -0.066616  -0.147386  1
  H  H53  1  0.665448  0.040437  0.478864  1
  H  H54  1  0.751835  -0.090361  0.174463  1
  H  H55  1  0.877973  0.007699  0.819843  1
  H  H56  1  1.047853  -0.051125  0.935671  1
  S  S57  1  0.962300  0.587340  1.096700  1
  S  S58  1  0.037700  0.412660  -0.096700  1
  S  S59  1  0.037700  0.087340  -0.596700  1
  S  S60  1  0.962300  -0.087340  0.596700  1
