# generated using pymatgen
data_H6C9N
_symmetry_space_group_name_H-M   'P 1'
_cell_length_a   8.22270000
_cell_length_b   10.31790000
_cell_length_c   11.92390000
_cell_angle_alpha   105.14500000
_cell_angle_beta   102.77700000
_cell_angle_gamma   105.18400000
_symmetry_Int_Tables_number   1
_chemical_formula_structural   H6C9N
_chemical_formula_sum   'H12 C18 N2'
_cell_volume   895.71857476
_cell_formula_units_Z   2
loop_
 _symmetry_equiv_pos_site_id
 _symmetry_equiv_pos_as_xyz
  1  'x, y, z'
loop_
 _atom_site_type_symbol
 _atom_site_label
 _atom_site_symmetry_multiplicity
 _atom_site_fract_x
 _atom_site_fract_y
 _atom_site_fract_z
 _atom_site_occupancy
  C  C1  1  0.620110  0.431250  0.482220  1
  C  C2  1  0.575880  0.512550  0.407170  1
  C  C3  1  0.546750  0.416080  0.575450  1
  C  C4  1  0.672130  0.504000  0.322470  1
  C  C5  1  0.453250  0.583920  0.424550  1
  C  C6  1  0.773980  0.421230  0.344900  1
  C  C7  1  0.830220  0.293660  0.487400  1
  C  C8  1  0.424120  0.487450  0.592830  1
  C  C9  1  0.379890  0.568750  0.517780  1
  C  C10  1  0.899600  0.377700  0.293590  1
  C  C11  1  0.949790  0.254100  0.437680  1
  C  C12  1  0.327870  0.496000  0.677530  1
  C  C13  1  0.985970  0.297580  0.338600  1
  C  C14  1  0.226020  0.578770  0.655100  1
  C  C15  1  0.169780  0.706340  0.512600  1
  C  C16  1  0.100400  0.622300  0.706410  1
  C  C17  1  0.050210  0.745900  0.562320  1
  C  C18  1  0.014030  0.702420  0.661400  1
  H  H19  1  0.583053  0.352316  0.631337  1
  H  H20  1  0.668398  0.553467  0.251069  1
  H  H21  1  0.416947  0.647684  0.368663  1
  H  H22  1  0.804764  0.259355  0.563680  1
  H  H23  1  0.930985  0.406958  0.216571  1
  H  H24  1  1.015589  0.188577  0.476628  1
  H  H25  1  0.331602  0.446533  0.748931  1
  H  H26  1  1.082914  0.268596  0.295827  1
  H  H27  1  0.195236  0.740645  0.436320  1
  H  H28  1  0.069015  0.593042  0.783429  1
  H  H29  1  -0.015589  0.811423  0.523372  1
  H  H30  1  -0.082914  0.731404  0.704173  1
  N  N31  1  0.742180  0.375710  0.442640  1
  N  N32  1  0.257820  0.624290  0.557360  1
