# generated using pymatgen
data_H7C11
_symmetry_space_group_name_H-M   'P 1'
_cell_length_a   7.18770000
_cell_length_b   7.87040000
_cell_length_c   16.47940000
_cell_angle_alpha   91.92360000
_cell_angle_beta   102.73700000
_cell_angle_gamma   90.96320000
_symmetry_Int_Tables_number   1
_chemical_formula_structural   H7C11
_chemical_formula_sum   'H14 C22'
_cell_volume   908.50790711
_cell_formula_units_Z   2
loop_
 _symmetry_equiv_pos_site_id
 _symmetry_equiv_pos_as_xyz
  1  'x, y, z'
loop_
 _atom_site_type_symbol
 _atom_site_label
 _atom_site_symmetry_multiplicity
 _atom_site_fract_x
 _atom_site_fract_y
 _atom_site_fract_z
 _atom_site_occupancy
  C  C1  1  0.519700  0.562800  0.583380  1
  C  C2  1  0.362300  0.455500  0.546970  1
  C  C3  1  0.659000  0.608000  0.538440  1
  C  C4  1  0.341000  0.392000  0.461560  1
  C  C5  1  0.222200  0.408200  0.590370  1
  C  C6  1  0.637700  0.544500  0.453030  1
  C  C7  1  0.819600  0.711700  0.574450  1
  C  C8  1  0.480300  0.437200  0.416620  1
  C  C9  1  0.180400  0.288300  0.425550  1
  C  C10  1  0.064700  0.307200  0.554130  1
  C  C11  1  0.777800  0.591800  0.409630  1
  C  C12  1  0.958600  0.753200  0.531340  1
  C  C13  1  0.041400  0.246800  0.468660  1
  C  C14  1  -0.079900  0.260800  0.597660  1
  C  C15  1  0.935300  0.692800  0.445870  1
  C  C16  1  1.123900  0.854800  0.568070  1
  C  C17  1  -0.123900  0.145200  0.431930  1
  C  C18  1  -0.232800  0.164000  0.560360  1
  C  C19  1  1.079900  0.739200  0.402340  1
  C  C20  1  1.256500  0.894300  0.524350  1
  C  C21  1  -0.256500  0.105700  0.475650  1
  C  C22  1  1.232800  0.836000  0.439640  1
  H  H23  1  0.534032  0.611971  0.647793  1
  H  H24  1  0.236445  0.452163  0.655570  1
  H  H25  1  0.837168  0.762290  0.638802  1
  H  H26  1  0.465968  0.388029  0.352207  1
  H  H27  1  0.162832  0.237710  0.361198  1
  H  H28  1  0.763555  0.547837  0.344430  1
  H  H29  1  -0.073213  0.301408  0.662786  1
  H  H30  1  1.150225  0.904793  0.632836  1
  H  H31  1  -0.150225  0.095207  0.367164  1
  H  H32  1  -0.336150  0.133203  0.598284  1
  H  H33  1  1.073213  0.698592  0.337214  1
  H  H34  1  1.380830  0.972096  0.556956  1
  H  H35  1  -0.380830  0.027904  0.443044  1
  H  H36  1  1.336150  0.866797  0.401716  1
