# generated using pymatgen
data_H5C9S
_symmetry_space_group_name_H-M   'P 1'
_cell_length_a   6.74620000
_cell_length_b   7.33770000
_cell_length_c   16.33720000
_cell_angle_alpha   92.23200000
_cell_angle_beta   93.74460000
_cell_angle_gamma   104.25150000
_symmetry_Int_Tables_number   1
_chemical_formula_structural   H5C9S
_chemical_formula_sum   'H10 C18 S2'
_cell_volume   780.88844843
_cell_formula_units_Z   2
loop_
 _symmetry_equiv_pos_site_id
 _symmetry_equiv_pos_as_xyz
  1  'x, y, z'
loop_
 _atom_site_type_symbol
 _atom_site_label
 _atom_site_symmetry_multiplicity
 _atom_site_fract_x
 _atom_site_fract_y
 _atom_site_fract_z
 _atom_site_occupancy
  C  C1  1  0.946300  0.827600  0.616080  1
  C  C2  1  1.033000  0.797400  0.540640  1
  C  C3  1  0.747600  0.738700  0.628720  1
  C  C4  1  1.256900  0.902800  0.535400  1
  C  C5  1  0.914900  0.684300  0.477870  1
  C  C6  1  1.312700  1.002300  0.613150  1
  C  C7  1  0.623800  0.617200  0.565330  1
  C  C8  1  0.706800  0.592900  0.487900  1
  C  C9  1  0.418700  0.520600  0.576660  1
  C  C10  1  0.581300  0.479400  0.423340  1
  C  C11  1  0.293200  0.407100  0.512100  1
  C  C12  1  0.376200  0.382800  0.434670  1
  C  C13  1  0.085100  0.315700  0.522130  1
  C  C14  1  0.252400  0.261300  0.371280  1
  C  C15  1  -0.033000  0.202600  0.459360  1
  C  C16  1  0.053700  0.172400  0.383920  1
  C  C17  1  -0.256900  0.097200  0.464600  1
  C  C18  1  -0.312700  -0.002300  0.386850  1
  H  H19  1  0.688955  0.764225  0.688250  1
  H  H20  1  1.358576  0.906369  0.485203  1
  H  H21  1  0.986056  0.667143  0.420312  1
  H  H22  1  1.474522  1.081826  0.618032  1
  H  H23  1  0.355976  0.533917  0.636461  1
  H  H24  1  0.644024  0.466083  0.363539  1
  H  H25  1  0.013944  0.332857  0.579688  1
  H  H26  1  0.311045  0.235775  0.311750  1
  H  H27  1  -0.358576  0.093631  0.514797  1
  H  H28  1  -0.474522  -0.081826  0.381968  1
  S  S29  1  1.127170  0.983200  0.683620  1
  S  S30  1  -0.127170  0.016800  0.316380  1
