# generated using pymatgen
data_H5C9S
_symmetry_space_group_name_H-M   'P 1'
_cell_length_a   29.40880000
_cell_length_b   8.57220000
_cell_length_c   20.06920000
_cell_angle_alpha   90.00000000
_cell_angle_beta   121.47730000
_cell_angle_gamma   90.00000000
_symmetry_Int_Tables_number   1
_chemical_formula_structural   H5C9S
_chemical_formula_sum   'H40 C72 S8'
_cell_volume   4314.90104171
_cell_formula_units_Z   8
loop_
 _symmetry_equiv_pos_site_id
 _symmetry_equiv_pos_as_xyz
  1  'x, y, z'
loop_
 _atom_site_type_symbol
 _atom_site_label
 _atom_site_symmetry_multiplicity
 _atom_site_fract_x
 _atom_site_fract_y
 _atom_site_fract_z
 _atom_site_occupancy
  C  C1  1  0.951570  0.398100  0.006900  1
  C  C2  1  0.918460  0.359000  -0.073400  1
  C  C3  1  0.990280  0.293400  0.057900  1
  C  C4  1  0.886300  0.491000  -0.116800  1
  C  C5  1  0.922310  0.219700  -0.102000  1
  C  C6  1  0.884900  0.598600  -0.070200  1
  C  C7  1  0.995780  0.146800  0.030000  1
  C  C8  1  0.960540  0.108900  -0.052370  1
  C  C9  1  1.034250  0.036400  0.079890  1
  C  C10  1  0.965750  -0.036400  -0.079890  1
  C  C11  1  1.039460  -0.108900  0.052370  1
  C  C12  1  1.004220  -0.146800  -0.030000  1
  C  C13  1  1.077690  -0.219700  0.102000  1
  C  C14  1  1.009720  -0.293400  -0.057900  1
  C  C15  1  1.081540  -0.359000  0.073400  1
  C  C16  1  1.048430  -0.398100  -0.006900  1
  C  C17  1  1.113700  -0.491000  0.116800  1
  C  C18  1  1.115100  -0.598600  0.070200  1
  C  C19  1  1.048430  0.398100  -0.506900  1
  C  C20  1  1.081540  0.359000  -0.426600  1
  C  C21  1  1.009720  0.293400  -0.557900  1
  C  C22  1  1.113700  0.491000  -0.383200  1
  C  C23  1  1.077690  0.219700  -0.398000  1
  C  C24  1  1.115100  0.598600  -0.429800  1
  C  C25  1  1.004220  0.146800  -0.530000  1
  C  C26  1  1.039460  0.108900  -0.447630  1
  C  C27  1  0.965750  0.036400  -0.579890  1
  C  C28  1  1.034250  -0.036400  -0.420110  1
  C  C29  1  0.960540  -0.108900  -0.552370  1
  C  C30  1  0.995780  -0.146800  -0.470000  1
  C  C31  1  0.922310  -0.219700  -0.602000  1
  C  C32  1  0.990280  -0.293400  -0.442100  1
  C  C33  1  0.918460  -0.359000  -0.573400  1
  C  C34  1  0.951570  -0.398100  -0.493100  1
  C  C35  1  0.886300  -0.491000  -0.616800  1
  C  C36  1  0.884900  -0.598600  -0.570200  1
  C  C37  1  0.451570  -0.101900  0.006900  1
  C  C38  1  0.418460  -0.141000  -0.073400  1
  C  C39  1  0.490280  -0.206600  0.057900  1
  C  C40  1  0.386300  -0.009000  -0.116800  1
  C  C41  1  0.422310  -0.280300  -0.102000  1
  C  C42  1  0.384900  0.098600  -0.070200  1
  C  C43  1  0.495780  -0.353200  0.030000  1
  C  C44  1  0.460540  -0.391100  -0.052370  1
  C  C45  1  0.534250  -0.463600  0.079890  1
  C  C46  1  0.465750  -0.536400  -0.079890  1
  C  C47  1  0.539460  -0.608900  0.052370  1
  C  C48  1  0.504220  -0.646800  -0.030000  1
  C  C49  1  0.577690  -0.719700  0.102000  1
  C  C50  1  0.509720  -0.793400  -0.057900  1
  C  C51  1  0.581540  -0.859000  0.073400  1
  C  C52  1  0.548430  -0.898100  -0.006900  1
  C  C53  1  0.613700  -0.991000  0.116800  1
  C  C54  1  0.615100  -1.098600  0.070200  1
  C  C55  1  0.548430  -0.101900  -0.506900  1
  C  C56  1  0.581540  -0.141000  -0.426600  1
  C  C57  1  0.509720  -0.206600  -0.557900  1
  C  C58  1  0.613700  -0.009000  -0.383200  1
  C  C59  1  0.577690  -0.280300  -0.398000  1
  C  C60  1  0.615100  0.098600  -0.429800  1
  C  C61  1  0.504220  -0.353200  -0.530000  1
  C  C62  1  0.539460  -0.391100  -0.447630  1
  C  C63  1  0.465750  -0.463600  -0.579890  1
  C  C64  1  0.534250  -0.536400  -0.420110  1
  C  C65  1  0.460540  -0.608900  -0.552370  1
  C  C66  1  0.495780  -0.646800  -0.470000  1
  C  C67  1  0.422310  -0.719700  -0.602000  1
  C  C68  1  0.490280  -0.793400  -0.442100  1
  C  C69  1  0.418460  -0.859000  -0.573400  1
  C  C70  1  0.451570  -0.898100  -0.493100  1
  C  C71  1  0.386300  -0.991000  -0.616800  1
  C  C72  1  0.384900  -1.098600  -0.570200  1
  H  H73  1  1.016273  0.326195  0.119654  1
  H  H74  1  0.864541  0.508260  -0.180464  1
  H  H75  1  0.894795  0.196891  -0.164609  1
  H  H76  1  0.851310  0.679739  -0.102290  1
  H  H77  1  1.060984  0.064452  0.142111  1
  H  H78  1  0.939016  -0.064452  -0.142111  1
  H  H79  1  1.105205  -0.196891  0.164609  1
  H  H80  1  0.983727  -0.326195  -0.119654  1
  H  H81  1  1.135459  -0.508260  0.180464  1
  H  H82  1  1.148690  -0.679739  0.102290  1
  H  H83  1  0.983727  0.326195  -0.619654  1
  H  H84  1  1.135459  0.508260  -0.319536  1
  H  H85  1  1.105205  0.196891  -0.335391  1
  H  H86  1  1.148690  0.679739  -0.397710  1
  H  H87  1  0.939016  0.064452  -0.642111  1
  H  H88  1  1.060984  -0.064452  -0.357889  1
  H  H89  1  0.894795  -0.196891  -0.664609  1
  H  H90  1  1.016273  -0.326195  -0.380346  1
  H  H91  1  0.864541  -0.508260  -0.680464  1
  H  H92  1  0.851310  -0.679739  -0.602290  1
  H  H93  1  0.516273  -0.173805  0.119654  1
  H  H94  1  0.364541  0.008260  -0.180464  1
  H  H95  1  0.394795  -0.303109  -0.164609  1
  H  H96  1  0.351310  0.179739  -0.102290  1
  H  H97  1  0.560984  -0.435548  0.142111  1
  H  H98  1  0.439016  -0.564452  -0.142111  1
  H  H99  1  0.605205  -0.696891  0.164609  1
  H  H100  1  0.483727  -0.826195  -0.119654  1
  H  H101  1  0.635459  -1.008260  0.180464  1
  H  H102  1  0.648690  -1.179739  0.102290  1
  H  H103  1  0.483727  -0.173805  -0.619654  1
  H  H104  1  0.635459  0.008260  -0.319536  1
  H  H105  1  0.605205  -0.303109  -0.335391  1
  H  H106  1  0.648690  0.179739  -0.397710  1
  H  H107  1  0.439016  -0.435548  -0.642111  1
  H  H108  1  0.560984  -0.564452  -0.357889  1
  H  H109  1  0.394795  -0.696891  -0.664609  1
  H  H110  1  0.516273  -0.826195  -0.380346  1
  H  H111  1  0.364541  -1.008260  -0.680464  1
  H  H112  1  0.351310  -1.179739  -0.602290  1
  S  S113  1  0.935000  0.581800  0.025600  1
  S  S114  1  1.065000  -0.581800  -0.025600  1
  S  S115  1  1.065000  0.581800  -0.525600  1
  S  S116  1  0.935000  -0.581800  -0.474400  1
  S  S117  1  0.435000  0.081800  0.025600  1
  S  S118  1  0.565000  -1.081800  -0.025600  1
  S  S119  1  0.565000  0.081800  -0.525600  1
  S  S120  1  0.435000  -1.081800  -0.474400  1
