# generated using pymatgen
data_H7C11
_symmetry_space_group_name_H-M   'P 1'
_cell_length_a   9.34560000
_cell_length_b   14.91990000
_cell_length_c   14.82380000
_cell_angle_alpha   90.00000000
_cell_angle_beta   95.81030000
_cell_angle_gamma   90.00000000
_symmetry_Int_Tables_number   1
_chemical_formula_structural   H7C11
_chemical_formula_sum   'H28 C44'
_cell_volume   2056.34377365
_cell_formula_units_Z   4
loop_
 _symmetry_equiv_pos_site_id
 _symmetry_equiv_pos_as_xyz
  1  'x, y, z'
loop_
 _atom_site_type_symbol
 _atom_site_label
 _atom_site_symmetry_multiplicity
 _atom_site_fract_x
 _atom_site_fract_y
 _atom_site_fract_z
 _atom_site_occupancy
  C  C1  1  0.539040  0.421880  0.453480  1
  C  C2  1  0.641220  0.463650  0.517350  1
  C  C3  1  0.398950  0.458110  0.434220  1
  C  C4  1  0.601050  0.541890  0.565780  1
  C  C5  1  0.782410  0.430350  0.534500  1
  C  C6  1  0.358780  0.536350  0.482650  1
  C  C7  1  0.297910  0.420830  0.367190  1
  C  C8  1  0.460960  0.578120  0.546520  1
  C  C9  1  0.702090  0.579170  0.632810  1
  C  C10  1  0.882650  0.468350  0.599140  1
  C  C11  1  0.217590  0.569650  0.465500  1
  C  C12  1  0.160430  0.456100  0.348300  1
  C  C13  1  0.839570  0.543900  0.651700  1
  C  C14  1  1.027830  0.434900  0.613760  1
  C  C15  1  0.117350  0.531650  0.400860  1
  C  C16  1  0.058130  0.418170  0.278980  1
  C  C17  1  0.941870  0.581830  0.721020  1
  C  C18  1  1.120740  0.475750  0.677080  1
  C  C19  1  -0.027830  0.565100  0.386240  1
  C  C20  1  -0.077740  0.452090  0.268710  1
  C  C21  1  1.077740  0.547910  0.731290  1
  C  C22  1  -0.120740  0.524250  0.322920  1
  C  C23  1  0.460960  0.921880  0.046520  1
  C  C24  1  0.358780  0.963650  -0.017350  1
  C  C25  1  0.601050  0.958110  0.065780  1
  C  C26  1  0.398950  1.041890  -0.065780  1
  C  C27  1  0.217590  0.930350  -0.034500  1
  C  C28  1  0.641220  1.036350  0.017350  1
  C  C29  1  0.702090  0.920830  0.132810  1
  C  C30  1  0.539040  1.078120  -0.046520  1
  C  C31  1  0.297910  1.079170  -0.132810  1
  C  C32  1  0.117350  0.968350  -0.099140  1
  C  C33  1  0.782410  1.069650  0.034500  1
  C  C34  1  0.839570  0.956100  0.151700  1
  C  C35  1  0.160430  1.043900  -0.151700  1
  C  C36  1  -0.027830  0.934900  -0.113760  1
  C  C37  1  0.882650  1.031650  0.099140  1
  C  C38  1  0.941870  0.918170  0.221020  1
  C  C39  1  0.058130  1.081830  -0.221020  1
  C  C40  1  -0.120740  0.975750  -0.177080  1
  C  C41  1  1.027830  1.065100  0.113760  1
  C  C42  1  1.077740  0.952090  0.231290  1
  C  C43  1  -0.077740  1.047910  -0.231290  1
  C  C44  1  1.120740  1.024250  0.177080  1
  H  H45  1  0.568792  0.360666  0.418470  1
  H  H46  1  0.815724  0.372345  0.495865  1
  H  H47  1  0.327411  0.362094  0.328216  1
  H  H48  1  0.431208  0.639334  0.581530  1
  H  H49  1  0.672589  0.637906  0.671784  1
  H  H50  1  0.184276  0.627655  0.504135  1
  H  H51  1  1.067889  0.377957  0.576437  1
  H  H52  1  0.083800  0.363229  0.233827  1
  H  H53  1  0.916200  0.636771  0.766173  1
  H  H54  1  1.231709  0.450186  0.684518  1
  H  H55  1  -0.067889  0.622043  0.423563  1
  H  H56  1  -0.153371  0.420948  0.216199  1
  H  H57  1  1.153371  0.579052  0.783801  1
  H  H58  1  -0.231709  0.549814  0.315482  1
  H  H59  1  0.431208  0.860666  0.081530  1
  H  H60  1  0.184276  0.872345  0.004135  1
  H  H61  1  0.672589  0.862094  0.171784  1
  H  H62  1  0.568792  1.139334  -0.081530  1
  H  H63  1  0.327411  1.137906  -0.171784  1
  H  H64  1  0.815724  1.127655  -0.004135  1
  H  H65  1  -0.067889  0.877957  -0.076437  1
  H  H66  1  0.916200  0.863229  0.266173  1
  H  H67  1  0.083800  1.136771  -0.266173  1
  H  H68  1  -0.231709  0.950186  -0.184518  1
  H  H69  1  1.067889  1.122043  0.076437  1
  H  H70  1  1.153371  0.920948  0.283801  1
  H  H71  1  -0.153371  1.079052  -0.283801  1
  H  H72  1  1.231709  1.049814  0.184518  1
