# generated using pymatgen
data_H5C9S
_symmetry_space_group_name_H-M   'P 1'
_cell_length_a   8.54770000
_cell_length_b   11.70190000
_cell_length_c   15.55140000
_cell_angle_alpha   88.37400000
_cell_angle_beta   89.43300000
_cell_angle_gamma   89.98800000
_symmetry_Int_Tables_number   1
_chemical_formula_structural   H5C9S
_chemical_formula_sum   'H20 C36 S4'
_cell_volume   1554.81589342
_cell_formula_units_Z   4
loop_
 _symmetry_equiv_pos_site_id
 _symmetry_equiv_pos_as_xyz
  1  'x, y, z'
loop_
 _atom_site_type_symbol
 _atom_site_label
 _atom_site_symmetry_multiplicity
 _atom_site_fract_x
 _atom_site_fract_y
 _atom_site_fract_z
 _atom_site_occupancy
  C  C1  1  0.624400  0.690700  0.610710  1
  C  C2  1  0.656700  0.632050  0.532440  1
  C  C3  1  0.486100  0.745720  0.624320  1
  C  C4  1  0.808000  0.576100  0.535400  1
  C  C5  1  0.548600  0.634540  0.468090  1
  C  C6  1  0.879500  0.595150  0.609030  1
  C  C7  1  0.370700  0.746340  0.558950  1
  C  C8  1  0.403500  0.692230  0.478940  1
  C  C9  1  0.223800  0.799180  0.572070  1
  C  C10  1  0.289900  0.696370  0.412770  1
  C  C11  1  0.110500  0.803100  0.506320  1
  C  C12  1  0.143000  0.749990  0.425730  1
  C  C13  1  -0.035300  0.858870  0.518910  1
  C  C14  1  0.026500  0.752120  0.360650  1
  C  C15  1  -0.145000  0.861380  0.455350  1
  C  C16  1  -0.112500  0.805620  0.375900  1
  C  C17  1  -0.298500  0.913200  0.456000  1
  C  C18  1  -0.370800  0.897680  0.382190  1
  C  C19  1  0.375600  0.309300  0.389290  1
  C  C20  1  0.343300  0.367950  0.467560  1
  C  C21  1  0.513900  0.254280  0.375680  1
  C  C22  1  0.192000  0.423900  0.464600  1
  C  C23  1  0.451400  0.365460  0.531910  1
  C  C24  1  0.120500  0.404850  0.390970  1
  C  C25  1  0.629300  0.253660  0.441050  1
  C  C26  1  0.596500  0.307770  0.521060  1
  C  C27  1  0.776200  0.200820  0.427930  1
  C  C28  1  0.710100  0.303630  0.587230  1
  C  C29  1  0.889500  0.196900  0.493680  1
  C  C30  1  0.857000  0.250010  0.574270  1
  C  C31  1  1.035300  0.141130  0.481090  1
  C  C32  1  0.973500  0.247880  0.639350  1
  C  C33  1  1.145000  0.138620  0.544650  1
  C  C34  1  1.112500  0.194380  0.624100  1
  C  C35  1  1.298500  0.086800  0.544000  1
  C  C36  1  1.370800  0.102320  0.617810  1
  H  H37  1  0.468251  0.788121  0.685880  1
  H  H38  1  0.863706  0.523744  0.486067  1
  H  H39  1  0.577970  0.590723  0.408398  1
  H  H40  1  0.993572  0.551622  0.608863  1
  H  H41  1  0.197315  0.837741  0.634240  1
  H  H42  1  0.316037  0.657533  0.350660  1
  H  H43  1  -0.063953  0.901144  0.579352  1
  H  H44  1  0.044015  0.712131  0.298117  1
  H  H45  1  -0.355227  0.960245  0.508019  1
  H  H46  1  -0.485506  0.940215  0.384097  1
  H  H47  1  0.531749  0.211879  0.314120  1
  H  H48  1  0.136294  0.476256  0.513933  1
  H  H49  1  0.422030  0.409277  0.591602  1
  H  H50  1  0.006428  0.448378  0.391137  1
  H  H51  1  0.802685  0.162259  0.365760  1
  H  H52  1  0.683963  0.342467  0.649340  1
  H  H53  1  1.063953  0.098856  0.420648  1
  H  H54  1  0.955985  0.287869  0.701883  1
  H  H55  1  1.355227  0.039755  0.491981  1
  H  H56  1  1.485506  0.059785  0.615903  1
  S  S57  1  0.780500  0.679260  0.682910  1
  S  S58  1  -0.271100  0.818380  0.305520  1
  S  S59  1  0.219500  0.320740  0.317090  1
  S  S60  1  1.271100  0.181620  0.694480  1
