# generated using pymatgen
data_H7C13S
_symmetry_space_group_name_H-M   'P 1'
_cell_length_a   8.94830000
_cell_length_b   16.27140000
_cell_length_c   17.44060000
_cell_angle_alpha   102.54100000
_cell_angle_beta   92.71000000
_cell_angle_gamma   100.73900000
_symmetry_Int_Tables_number   1
_chemical_formula_structural   H7C13S
_chemical_formula_sum   'H28 C52 S4'
_cell_volume   2425.16136124
_cell_formula_units_Z   4
loop_
 _symmetry_equiv_pos_site_id
 _symmetry_equiv_pos_as_xyz
  1  'x, y, z'
loop_
 _atom_site_type_symbol
 _atom_site_label
 _atom_site_symmetry_multiplicity
 _atom_site_fract_x
 _atom_site_fract_y
 _atom_site_fract_z
 _atom_site_occupancy
  C  C1  1  0.145000  0.454700  0.386700  1
  C  C2  1  0.130000  0.386300  0.319200  1
  C  C3  1  0.036400  0.504000  0.400900  1
  C  C4  1  0.261000  0.349300  0.320400  1
  C  C5  1  0.003400  0.367300  0.267200  1
  C  C6  1  0.362300  0.383600  0.379800  1
  C  C7  1  -0.098400  0.485000  0.347000  1
  C  C8  1  -0.116400  0.414300  0.280300  1
  C  C9  1  -0.211500  0.535200  0.357500  1
  C  C10  1  -0.246700  0.395900  0.227300  1
  C  C11  1  -0.341800  0.516800  0.305700  1
  C  C12  1  -0.360800  0.444200  0.238500  1
  C  C13  1  -0.454700  0.567300  0.316100  1
  C  C14  1  -0.493800  0.424400  0.185800  1
  C  C15  1  -0.589300  0.547300  0.263600  1
  C  C16  1  -0.607600  0.475100  0.195400  1
  C  C17  1  -0.705000  0.594600  0.272800  1
  C  C18  1  -0.739800  0.456500  0.143700  1
  C  C19  1  -0.836400  0.574900  0.222400  1
  C  C20  1  -0.854400  0.504000  0.153900  1
  C  C21  1  -0.953900  0.622500  0.232200  1
  C  C22  1  -0.985600  0.484900  0.099200  1
  C  C23  1  -1.080900  0.602100  0.180400  1
  C  C24  1  -1.096200  0.532400  0.112600  1
  C  C25  1  -1.219000  0.638000  0.188000  1
  C  C26  1  -1.311000  0.605000  0.122000  1
  C  C27  1  -1.145000  0.545300  0.613300  1
  C  C28  1  -1.130000  0.613700  0.680800  1
  C  C29  1  -1.036400  0.496000  0.599100  1
  C  C30  1  -1.261000  0.650700  0.679600  1
  C  C31  1  -1.003400  0.632700  0.732800  1
  C  C32  1  -1.362300  0.616400  0.620200  1
  C  C33  1  -0.901600  0.515000  0.653000  1
  C  C34  1  -0.883600  0.585700  0.719700  1
  C  C35  1  -0.788500  0.464800  0.642500  1
  C  C36  1  -0.753300  0.604100  0.772700  1
  C  C37  1  -0.658200  0.483200  0.694300  1
  C  C38  1  -0.639200  0.555800  0.761500  1
  C  C39  1  -0.545300  0.432700  0.683900  1
  C  C40  1  -0.506200  0.575600  0.814200  1
  C  C41  1  -0.410700  0.452700  0.736400  1
  C  C42  1  -0.392400  0.524900  0.804600  1
  C  C43  1  -0.295000  0.405400  0.727200  1
  C  C44  1  -0.260200  0.543500  0.856300  1
  C  C45  1  -0.163600  0.425100  0.777600  1
  C  C46  1  -0.145600  0.496000  0.846100  1
  C  C47  1  -0.046100  0.377500  0.767800  1
  C  C48  1  -0.014400  0.515100  0.900800  1
  C  C49  1  0.080900  0.397900  0.819600  1
  C  C50  1  0.096200  0.467600  0.887400  1
  C  C51  1  0.219000  0.362000  0.812000  1
  C  C52  1  0.311000  0.395000  0.878000  1
  H  H53  1  0.056758  0.557072  0.453816  1
  H  H54  1  0.283675  0.294865  0.275966  1
  H  H55  1  -0.002047  0.314431  0.215052  1
  H  H56  1  0.457538  0.349255  0.373872  1
  H  H57  1  -0.197566  0.590774  0.407971  1
  H  H58  1  -0.259798  0.341970  0.175392  1
  H  H59  1  -0.437417  0.623451  0.366198  1
  H  H60  1  -0.509148  0.368045  0.136000  1
  H  H61  1  -0.691854  0.650703  0.322706  1
  H  H62  1  -0.754378  0.401749  0.092428  1
  H  H63  1  -0.946166  0.677858  0.282348  1
  H  H64  1  -1.001766  0.432636  0.045759  1
  H  H65  1  -1.250021  0.684364  0.237526  1
  H  H66  1  -1.402358  0.641864  0.122267  1
  H  H67  1  -1.056758  0.442928  0.546184  1
  H  H68  1  -1.283675  0.705135  0.724034  1
  H  H69  1  -0.997953  0.685569  0.784948  1
  H  H70  1  -1.457538  0.650745  0.626128  1
  H  H71  1  -0.802434  0.409226  0.592029  1
  H  H72  1  -0.740202  0.658030  0.824608  1
  H  H73  1  -0.562583  0.376549  0.633802  1
  H  H74  1  -0.490852  0.631955  0.864000  1
  H  H75  1  -0.308146  0.349297  0.677294  1
  H  H76  1  -0.245622  0.598251  0.907572  1
  H  H77  1  -0.053834  0.322142  0.717652  1
  H  H78  1  0.001766  0.567364  0.954241  1
  H  H79  1  0.250021  0.315636  0.762474  1
  H  H80  1  0.402358  0.358136  0.877733  1
  S  S81  1  0.315800  0.471200  0.448400  1
  S  S82  1  -1.266200  0.516800  0.055600  1
  S  S83  1  -1.315800  0.528800  0.551600  1
  S  S84  1  0.266200  0.483200  0.944400  1
