# generated using pymatgen
data_H9C13O
_symmetry_space_group_name_H-M   'P 1'
_cell_length_a   8.68560000
_cell_length_b   10.87180000
_cell_length_c   12.00160000
_cell_angle_alpha   104.80610000
_cell_angle_beta   92.85120000
_cell_angle_gamma   106.30910000
_symmetry_Int_Tables_number   1
_chemical_formula_structural   H9C13O
_chemical_formula_sum   'H18 C26 O2'
_cell_volume   1042.51557015
_cell_formula_units_Z   2
loop_
 _symmetry_equiv_pos_site_id
 _symmetry_equiv_pos_as_xyz
  1  'x, y, z'
loop_
 _atom_site_type_symbol
 _atom_site_label
 _atom_site_symmetry_multiplicity
 _atom_site_fract_x
 _atom_site_fract_y
 _atom_site_fract_z
 _atom_site_occupancy
  C  C1  1  0.940660  0.108050  0.760600  1
  C  C2  1  0.815840  0.122640  0.841390  1
  C  C3  1  0.933320  0.187350  0.683210  1
  C  C4  1  1.047090  0.036830  0.753500  1
  C  C5  1  0.802530  0.251020  0.713360  1
  C  C6  1  1.033140  0.195130  0.600180  1
  C  C7  1  1.157410  0.043240  0.668810  1
  C  C8  1  1.150920  0.124380  0.590810  1
  C  C9  1  1.272780  -0.023560  0.661120  1
  C  C10  1  1.260740  0.133800  0.511200  1
  C  C11  1  1.385760  -0.013570  0.581280  1
  C  C12  1  1.380040  0.068090  0.504330  1
  C  C13  1  1.505010  -0.080760  0.575350  1
  C  C14  1  1.494990  0.080760  0.424650  1
  C  C15  1  1.619960  -0.068090  0.495670  1
  C  C16  1  1.614240  0.013570  0.418720  1
  C  C17  1  1.739260  -0.133800  0.488800  1
  C  C18  1  1.727220  0.023560  0.338880  1
  C  C19  1  1.849080  -0.124380  0.409190  1
  C  C20  1  1.842590  -0.043240  0.331190  1
  C  C21  1  1.966860  -0.195130  0.399820  1
  C  C22  1  1.952910  -0.036830  0.246500  1
  C  C23  1  2.066680  -0.187350  0.316790  1
  C  C24  1  2.059340  -0.108050  0.239400  1
  C  C25  1  2.197470  -0.251020  0.286640  1
  C  C26  1  2.184160  -0.122640  0.158610  1
  H  H27  1  0.719834  0.054601  0.771702  1
  H  H28  1  0.911846  0.190679  0.911078  1
  H  H29  1  1.044041  -0.024020  0.814318  1
  H  H30  1  0.894923  0.347183  0.755301  1
  H  H31  1  0.710137  0.154857  0.671419  1
  H  H32  1  1.019106  0.256495  0.542621  1
  H  H33  1  1.274726  -0.086093  0.719875  1
  H  H34  1  1.253034  0.194873  0.452070  1
  H  H35  1  1.508400  -0.143727  0.633500  1
  H  H36  1  1.491600  0.143727  0.366500  1
  H  H37  1  1.746966  -0.194873  0.547930  1
  H  H38  1  1.725274  0.086093  0.280125  1
  H  H39  1  1.980894  -0.256495  0.457379  1
  H  H40  1  1.955959  0.024020  0.185682  1
  H  H41  1  2.289863  -0.154857  0.328581  1
  H  H42  1  2.105077  -0.347183  0.244699  1
  H  H43  1  2.088154  -0.190679  0.088922  1
  H  H44  1  2.280166  -0.054601  0.228298  1
  O  O45  1  0.768800  0.234800  0.825300  1
  O  O46  1  2.231200  -0.234800  0.174700  1
