# generated using pymatgen
data_H5C9Se
_symmetry_space_group_name_H-M   'P 1'
_cell_length_a   8.87380000
_cell_length_b   10.41360000
_cell_length_c   11.17370000
_cell_angle_alpha   67.97700000
_cell_angle_beta   82.58800000
_cell_angle_gamma   77.53000000
_symmetry_Int_Tables_number   1
_chemical_formula_structural   H5C9Se
_chemical_formula_sum   'H10 C18 Se2'
_cell_volume   933.30243478
_cell_formula_units_Z   2
loop_
 _symmetry_equiv_pos_site_id
 _symmetry_equiv_pos_as_xyz
  1  'x, y, z'
loop_
 _atom_site_type_symbol
 _atom_site_label
 _atom_site_symmetry_multiplicity
 _atom_site_fract_x
 _atom_site_fract_y
 _atom_site_fract_z
 _atom_site_occupancy
  C  C1  1  0.376000  0.047600  0.815200  1
  C  C2  1  0.371500  0.131700  0.892500  1
  C  C3  1  0.258000  -0.022200  0.824500  1
  C  C4  1  0.505200  0.195200  0.871400  1
  C  C5  1  0.246600  0.144200  0.976500  1
  C  C6  1  0.614000  0.165900  0.782200  1
  C  C7  1  0.129100  -0.012000  0.911400  1
  C  C8  1  0.122600  0.073000  0.989000  1
  C  C9  1  0.005800  -0.083900  0.924300  1
  C  C10  1  -0.005800  0.083900  1.075700  1
  C  C11  1  -0.122600  -0.073000  1.011000  1
  C  C12  1  -0.129100  0.012000  1.088600  1
  C  C13  1  -0.246600  -0.144200  1.023500  1
  C  C14  1  -0.258000  0.022200  1.175500  1
  C  C15  1  -0.371500  -0.131700  1.107500  1
  C  C16  1  -0.376000  -0.047600  1.184800  1
  C  C17  1  -0.505200  -0.195200  1.128600  1
  C  C18  1  -0.614000  -0.165900  1.217800  1
  H  H19  1  0.266607  -0.085372  0.763223  1
  H  H20  1  0.523465  0.263271  0.921353  1
  H  H21  1  0.245885  0.210721  1.033325  1
  H  H22  1  0.712515  0.217609  0.774358  1
  H  H23  1  0.009836  -0.149422  0.865900  1
  H  H24  1  -0.009836  0.149422  1.134100  1
  H  H25  1  -0.245885  -0.210721  0.966675  1
  H  H26  1  -0.266607  0.085372  1.236777  1
  H  H27  1  -0.523465  -0.263271  1.078647  1
  H  H28  1  -0.712515  -0.217609  1.225642  1
  Se  Se29  1  0.557850  0.050020  0.706130  1
  Se  Se30  1  -0.557850  -0.050020  1.293870  1
