# generated using pymatgen
data_H7C13S
_symmetry_space_group_name_H-M   'P 1'
_cell_length_a   8.50980000
_cell_length_b   11.74800000
_cell_length_c   12.98960000
_cell_angle_alpha   76.83140000
_cell_angle_beta   86.72500000
_cell_angle_gamma   68.94970000
_symmetry_Int_Tables_number   1
_chemical_formula_structural   H7C13S
_chemical_formula_sum   'H14 C26 S2'
_cell_volume   1179.64320855
_cell_formula_units_Z   2
loop_
 _symmetry_equiv_pos_site_id
 _symmetry_equiv_pos_as_xyz
  1  'x, y, z'
loop_
 _atom_site_type_symbol
 _atom_site_label
 _atom_site_symmetry_multiplicity
 _atom_site_fract_x
 _atom_site_fract_y
 _atom_site_fract_z
 _atom_site_occupancy
  C  C1  1  0.193800  0.845500  0.213200  1
  C  C2  1  0.253900  0.794000  0.122300  1
  C  C3  1  0.026500  0.906200  0.225100  1
  C  C4  1  0.433800  0.735000  0.124000  1
  C  C5  1  0.141800  0.802900  0.046900  1
  C  C6  1  0.504100  0.743800  0.214200  1
  C  C7  1  -0.093400  0.919100  0.147200  1
  C  C8  1  -0.033200  0.863200  0.056900  1
  C  C9  1  -0.264200  0.983600  0.154200  1
  C  C10  1  -0.151400  0.870200  -0.016800  1
  C  C11  1  -0.382700  0.994700  0.077600  1
  C  C12  1  -0.324200  0.932500  -0.009400  1
  C  C13  1  -0.557200  1.062600  0.084000  1
  C  C14  1  -0.442800  0.937400  -0.084000  1
  C  C15  1  -0.675800  1.067500  0.009400  1
  C  C16  1  -0.617300  1.005300  -0.077600  1
  C  C17  1  -0.848600  1.129800  0.016800  1
  C  C18  1  -0.735800  1.016400  -0.154200  1
  C  C19  1  -0.966800  1.136800  -0.056900  1
  C  C20  1  -0.906600  1.080900  -0.147200  1
  C  C21  1  -1.141800  1.197100  -0.046900  1
  C  C22  1  -1.026500  1.093800  -0.225100  1
  C  C23  1  -1.253900  1.206000  -0.122300  1
  C  C24  1  -1.193800  1.154500  -0.213200  1
  C  C25  1  -1.433800  1.265000  -0.124000  1
  C  C26  1  -1.504100  1.256200  -0.214200  1
  H  H27  1  -0.011122  0.944140  0.296376  1
  H  H28  1  0.508758  0.688630  0.063473  1
  H  H29  1  0.192170  0.761739  -0.021488  1
  H  H30  1  0.642266  0.700071  0.218618  1
  H  H31  1  -0.306780  1.027075  0.222263  1
  H  H32  1  -0.106469  0.824693  -0.083539  1
  H  H33  1  -0.601510  1.112537  0.148205  1
  H  H34  1  -0.398490  0.887463  -0.148205  1
  H  H35  1  -0.893531  1.175307  0.083539  1
  H  H36  1  -0.693220  0.972925  -0.222263  1
  H  H37  1  -1.192170  1.238261  0.021488  1
  H  H38  1  -0.988878  1.055860  -0.296376  1
  H  H39  1  -1.508758  1.311370  -0.063473  1
  H  H40  1  -1.642266  1.299929  -0.218618  1
  S  S41  1  0.358600  0.820900  0.297500  1
  S  S42  1  -1.358600  1.179100  -0.297500  1
