# generated using pymatgen
data_H5C7
_symmetry_space_group_name_H-M   'P 1'
_cell_length_a   11.19800000
_cell_length_b   13.52800000
_cell_length_c   12.15200000
_cell_angle_alpha   90.00000000
_cell_angle_beta   99.76000000
_cell_angle_gamma   90.00000000
_symmetry_Int_Tables_number   1
_chemical_formula_structural   H5C7
_chemical_formula_sum   'H20 C28'
_cell_volume   1814.22070664
_cell_formula_units_Z   4
loop_
 _symmetry_equiv_pos_site_id
 _symmetry_equiv_pos_as_xyz
  1  'x, y, z'
loop_
 _atom_site_type_symbol
 _atom_site_label
 _atom_site_symmetry_multiplicity
 _atom_site_fract_x
 _atom_site_fract_y
 _atom_site_fract_z
 _atom_site_occupancy
  C  C1  1  0.416770  0.422200  0.469390  1
  C  C2  1  0.389430  0.496290  0.544010  1
  C  C3  1  0.525830  0.425210  0.425950  1
  C  C4  1  0.474170  0.574790  0.574050  1
  C  C5  1  0.280880  0.493440  0.590740  1
  C  C6  1  0.610570  0.503710  0.455990  1
  C  C7  1  0.555880  0.350780  0.351770  1
  C  C8  1  0.583230  0.577800  0.530610  1
  C  C9  1  0.444120  0.649220  0.648230  1
  C  C10  1  0.257740  0.564990  0.663260  1
  C  C11  1  0.719120  0.506560  0.409260  1
  C  C12  1  0.659920  0.355380  0.309100  1
  C  C13  1  0.340080  0.644620  0.690900  1
  C  C14  1  0.742260  0.435010  0.336740  1
  C  C15  1  1.083230  -0.077800  1.030610  1
  C  C16  1  1.110570  -0.003710  0.955990  1
  C  C17  1  0.974170  -0.074790  1.074050  1
  C  C18  1  1.025830  0.074790  0.925950  1
  C  C19  1  1.219120  -0.006560  0.909260  1
  C  C20  1  0.889430  0.003710  1.044010  1
  C  C21  1  0.944120  -0.149220  1.148230  1
  C  C22  1  0.916770  0.077800  0.969390  1
  C  C23  1  1.055880  0.149220  0.851770  1
  C  C24  1  1.242260  0.064990  0.836740  1
  C  C25  1  0.780880  0.006560  1.090740  1
  C  C26  1  0.840080  -0.144620  1.190900  1
  C  C27  1  1.159920  0.144620  0.809100  1
  C  C28  1  0.757740  -0.064990  1.163260  1
  H  H29  1  0.352418  0.361486  0.444837  1
  H  H30  1  0.213153  0.434444  0.570290  1
  H  H31  1  0.496339  0.287184  0.326414  1
  H  H32  1  0.647582  0.638514  0.555163  1
  H  H33  1  0.503661  0.712816  0.673586  1
  H  H34  1  0.174068  0.558581  0.698861  1
  H  H35  1  0.786847  0.565556  0.429710  1
  H  H36  1  0.677284  0.295341  0.252838  1
  H  H37  1  0.322716  0.704659  0.747162  1
  H  H38  1  0.825932  0.441419  0.301139  1
  H  H39  1  1.147582  -0.138514  1.055163  1
  H  H40  1  1.286847  -0.065556  0.929710  1
  H  H41  1  1.003661  -0.212816  1.173586  1
  H  H42  1  0.852418  0.138514  0.944837  1
  H  H43  1  0.996339  0.212816  0.826414  1
  H  H44  1  1.325932  0.058581  0.801139  1
  H  H45  1  0.713153  0.065556  1.070290  1
  H  H46  1  0.822716  -0.204659  1.247162  1
  H  H47  1  1.177284  0.204659  0.752838  1
  H  H48  1  0.674068  -0.058581  1.198861  1
