# generated using pymatgen
data_H2C3
_symmetry_space_group_name_H-M   'P 1'
_cell_length_a   7.54290000
_cell_length_b   14.14760000
_cell_length_c   17.57950000
_cell_angle_alpha   70.73400000
_cell_angle_beta   81.73500000
_cell_angle_gamma   83.19800000
_symmetry_Int_Tables_number   1
_chemical_formula_structural   H2C3
_chemical_formula_sum   'H24 C36'
_cell_volume   1747.45408075
_cell_formula_units_Z   12
loop_
 _symmetry_equiv_pos_site_id
 _symmetry_equiv_pos_as_xyz
  1  'x, y, z'
loop_
 _atom_site_type_symbol
 _atom_site_label
 _atom_site_symmetry_multiplicity
 _atom_site_fract_x
 _atom_site_fract_y
 _atom_site_fract_z
 _atom_site_occupancy
  C  C1  1  0.619170  0.674440  0.581160  1
  C  C2  1  0.667360  0.775290  0.550450  1
  C  C3  1  0.684910  0.605700  0.540440  1
  C  C4  1  0.778140  0.807740  0.474600  1
  C  C5  1  0.608960  0.843640  0.592370  1
  C  C6  1  0.792700  0.638640  0.463580  1
  C  C7  1  0.648900  0.502560  0.573120  1
  C  C8  1  0.836050  0.738830  0.431170  1
  C  C9  1  0.824800  0.907030  0.444620  1
  C  C10  1  0.657000  0.941250  0.562720  1
  C  C11  1  0.852000  0.567460  0.422460  1
  C  C12  1  0.711800  0.437180  0.532790  1
  C  C13  1  0.768360  0.973800  0.486880  1
  C  C14  1  0.598900  1.012270  0.603840  1
  C  C15  1  0.813800  0.470700  0.455540  1
  C  C16  1  0.815400  1.074500  0.458410  1
  C  C17  1  0.647000  1.107130  0.574330  1
  C  C18  1  0.758900  1.138700  0.500100  1
  C  C19  1  0.380830  1.325560  0.418840  1
  C  C20  1  0.332640  1.224710  0.449550  1
  C  C21  1  0.315090  1.394300  0.459560  1
  C  C22  1  0.221860  1.192260  0.525400  1
  C  C23  1  0.391040  1.156360  0.407630  1
  C  C24  1  0.207300  1.361360  0.536420  1
  C  C25  1  0.351100  1.497440  0.426880  1
  C  C26  1  0.163950  1.261170  0.568830  1
  C  C27  1  0.175200  1.092970  0.555380  1
  C  C28  1  0.343000  1.058750  0.437280  1
  C  C29  1  0.148000  1.432540  0.577540  1
  C  C30  1  0.288200  1.562820  0.467210  1
  C  C31  1  0.231640  1.026200  0.513120  1
  C  C32  1  0.401100  0.987730  0.396160  1
  C  C33  1  0.186200  1.529300  0.544460  1
  C  C34  1  0.184600  0.925500  0.541590  1
  C  C35  1  0.353000  0.892870  0.425670  1
  C  C36  1  0.241100  0.861300  0.499900  1
  H  H37  1  0.528901  0.648999  0.637755  1
  H  H38  1  0.522728  0.819935  0.650352  1
  H  H39  1  0.569036  0.472071  0.632071  1
  H  H40  1  0.915720  0.763441  0.371500  1
  H  H41  1  0.908306  0.933370  0.386109  1
  H  H42  1  0.930873  0.588153  0.362436  1
  H  H43  1  0.680674  0.358450  0.562180  1
  H  H44  1  0.511799  0.992717  0.661768  1
  H  H45  1  0.864929  0.420019  0.420142  1
  H  H46  1  0.900383  1.104458  0.400824  1
  H  H47  1  0.596154  1.157570  0.609970  1
  H  H48  1  0.803209  1.215297  0.474074  1
  H  H49  1  0.471099  1.351001  0.362245  1
  H  H50  1  0.477272  1.180065  0.349648  1
  H  H51  1  0.430964  1.527929  0.367929  1
  H  H52  1  0.084280  1.236559  0.628500  1
  H  H53  1  0.091694  1.066630  0.613891  1
  H  H54  1  0.069127  1.411847  0.637564  1
  H  H55  1  0.319326  1.641550  0.437820  1
  H  H56  1  0.488201  1.007283  0.338232  1
  H  H57  1  0.135071  1.579981  0.579858  1
  H  H58  1  0.099617  0.895542  0.599176  1
  H  H59  1  0.403846  0.842430  0.390030  1
  H  H60  1  0.196791  0.784703  0.525926  1
