# generated using pymatgen
data_H3C5
_symmetry_space_group_name_H-M   'P 1'
_cell_length_a   9.23000000
_cell_length_b   24.68000000
_cell_length_c   25.40000000
_cell_angle_alpha   94.32000000
_cell_angle_beta   95.14000000
_cell_angle_gamma   90.35000000
_symmetry_Int_Tables_number   1
_chemical_formula_structural   H3C5
_chemical_formula_sum   'H72 C120'
_cell_volume   5745.90743603
_cell_formula_units_Z   24
loop_
 _symmetry_equiv_pos_site_id
 _symmetry_equiv_pos_as_xyz
  1  'x, y, z'
loop_
 _atom_site_type_symbol
 _atom_site_label
 _atom_site_symmetry_multiplicity
 _atom_site_fract_x
 _atom_site_fract_y
 _atom_site_fract_z
 _atom_site_occupancy
  C  C1  1  0.236100  0.264300  0.299300  1
  C  C2  1  0.100600  0.274900  0.271600  1
  C  C3  1  0.346900  0.236700  0.273600  1
  C  C4  1  0.075700  0.257000  0.215500  1
  C  C5  1  -0.010600  0.300500  0.296200  1
  C  C6  1  0.319900  0.219100  0.217500  1
  C  C7  1  0.479900  0.225100  0.300500  1
  C  C8  1  0.186100  0.229700  0.189400  1
  C  C9  1  -0.057800  0.268600  0.188700  1
  C  C10  1  -0.142800  0.310600  0.270100  1
  C  C11  1  0.430900  0.192300  0.192500  1
  C  C12  1  0.590900  0.198200  0.275500  1
  C  C13  1  -0.169100  0.294900  0.214100  1
  C  C14  1  -0.255300  0.336900  0.295700  1
  C  C15  1  0.565300  0.181400  0.219400  1
  C  C16  1  0.725900  0.186900  0.301600  1
  C  C17  1  -0.302500  0.306200  0.187300  1
  C  C18  1  -0.386600  0.348300  0.268600  1
  C  C19  1  0.676900  0.155200  0.194000  1
  C  C20  1  0.834200  0.161400  0.276200  1
  C  C21  1  -0.411000  0.332400  0.212700  1
  C  C22  1  -0.501500  0.374700  0.294100  1
  C  C23  1  0.808200  0.145100  0.219800  1
  C  C24  1  0.971400  0.150300  0.302700  1
  C  C25  1  -0.548700  0.344700  0.186500  1
  C  C26  1  -0.628900  0.384700  0.267600  1
  C  C27  1  0.923600  0.119400  0.194200  1
  C  C28  1  1.075800  0.125500  0.276300  1
  C  C29  1  -0.652900  0.370200  0.212100  1
  C  C30  1  1.051600  0.110000  0.221800  1
  C  C31  1  -0.236100  -0.264300  -0.299300  1
  C  C32  1  -0.100600  -0.274900  -0.271600  1
  C  C33  1  -0.346900  -0.236700  -0.273600  1
  C  C34  1  -0.075700  -0.257000  -0.215500  1
  C  C35  1  0.010600  -0.300500  -0.296200  1
  C  C36  1  -0.319900  -0.219100  -0.217500  1
  C  C37  1  -0.479900  -0.225100  -0.300500  1
  C  C38  1  -0.186100  -0.229700  -0.189400  1
  C  C39  1  0.057800  -0.268600  -0.188700  1
  C  C40  1  0.142800  -0.310600  -0.270100  1
  C  C41  1  -0.430900  -0.192300  -0.192500  1
  C  C42  1  -0.590900  -0.198200  -0.275500  1
  C  C43  1  0.169100  -0.294900  -0.214100  1
  C  C44  1  0.255300  -0.336900  -0.295700  1
  C  C45  1  -0.565300  -0.181400  -0.219400  1
  C  C46  1  -0.725900  -0.186900  -0.301600  1
  C  C47  1  0.302500  -0.306200  -0.187300  1
  C  C48  1  0.386600  -0.348300  -0.268600  1
  C  C49  1  -0.676900  -0.155200  -0.194000  1
  C  C50  1  -0.834200  -0.161400  -0.276200  1
  C  C51  1  0.411000  -0.332400  -0.212700  1
  C  C52  1  0.501500  -0.374700  -0.294100  1
  C  C53  1  -0.808200  -0.145100  -0.219800  1
  C  C54  1  -0.971400  -0.150300  -0.302700  1
  C  C55  1  0.548700  -0.344700  -0.186500  1
  C  C56  1  0.628900  -0.384700  -0.267600  1
  C  C57  1  -0.923600  -0.119400  -0.194200  1
  C  C58  1  -1.075800  -0.125500  -0.276300  1
  C  C59  1  0.652900  -0.370200  -0.212100  1
  C  C60  1  -1.051600  -0.110000  -0.221800  1
  C  C61  1  0.000400  0.515100  0.055500  1
  C  C62  1  -0.123100  0.524900  0.021100  1
  C  C63  1  0.123300  0.488700  0.035600  1
  C  C64  1  -0.123300  0.511300  -0.035600  1
  C  C65  1  -0.248800  0.546600  0.040300  1
  C  C66  1  0.123100  0.475100  -0.021100  1
  C  C67  1  0.245100  0.476400  0.068900  1
  C  C68  1  -0.000400  0.484900  -0.055500  1
  C  C69  1  -0.245100  0.523600  -0.068900  1
  C  C70  1  -0.371400  0.557500  0.007200  1
  C  C71  1  0.248800  0.453400  -0.040300  1
  C  C72  1  0.368300  0.452500  0.050000  1
  C  C73  1  -0.368300  0.547500  -0.050000  1
  C  C74  1  -0.498100  0.579000  0.026500  1
  C  C75  1  0.371400  0.442500  -0.007200  1
  C  C76  1  0.490300  0.439500  0.083100  1
  C  C77  1  -0.490300  0.560500  -0.083100  1
  C  C78  1  -0.619200  0.590900  -0.006400  1
  C  C79  1  0.498100  0.421000  -0.026500  1
  C  C80  1  0.613100  0.418000  0.062500  1
  C  C81  1  -0.613100  0.582000  -0.062500  1
  C  C82  1  -0.749200  0.611500  0.013200  1
  C  C83  1  0.619200  0.409100  0.006400  1
  C  C84  1  0.736600  0.405100  0.096400  1
  C  C85  1  -0.736600  0.594900  -0.096400  1
  C  C86  1  -0.864400  0.621600  -0.020600  1
  C  C87  1  0.749200  0.388500  -0.013200  1
  C  C88  1  0.859600  0.386200  0.076100  1
  C  C89  1  -0.859600  0.613800  -0.076100  1
  C  C90  1  0.864400  0.378400  0.020600  1
  C  C91  1  0.500900  -0.015900  0.445100  1
  C  C92  1  0.624300  -0.024900  0.480000  1
  C  C93  1  0.376800  0.009900  0.463800  1
  C  C94  1  0.623200  -0.009900  0.536200  1
  C  C95  1  0.748800  -0.048000  0.461700  1
  C  C96  1  0.375700  0.024900  0.520000  1
  C  C97  1  0.254100  0.020500  0.429700  1
  C  C98  1  0.499100  0.015900  0.554900  1
  C  C99  1  0.745900  -0.020500  0.570300  1
  C  C100  1  0.872300  -0.057500  0.495400  1
  C  C101  1  0.251200  0.048000  0.538300  1
  C  C102  1  0.129500  0.044400  0.448300  1
  C  C103  1  0.870500  -0.044400  0.551700  1
  C  C104  1  0.999100  -0.080500  0.476900  1
  C  C105  1  0.127700  0.057500  0.504600  1
  C  C106  1  0.007700  0.056000  0.414300  1
  C  C107  1  0.992300  -0.056000  0.585700  1
  C  C108  1  1.119200  -0.090400  0.510300  1
  C  C109  1  0.000900  0.080500  0.523100  1
  C  C110  1  -0.116300  0.078100  0.433100  1
  C  C111  1  1.116300  -0.078100  0.566900  1
  C  C112  1  1.248900  -0.112600  0.492200  1
  C  C113  1  -0.119200  0.090400  0.489700  1
  C  C114  1  -0.242400  0.088300  0.399200  1
  C  C115  1  1.242400  -0.088300  0.600800  1
  C  C116  1  1.365200  -0.121800  0.526200  1
  C  C117  1  -0.248900  0.112600  0.507800  1
  C  C118  1  -0.362100  0.109600  0.418800  1
  C  C119  1  1.362100  -0.109600  0.581200  1
  C  C120  1  -0.365200  0.121800  0.473800  1
  H  H121  1  0.255681  0.277777  0.341632  1
  H  H122  1  0.007001  0.313491  0.338694  1
  H  H123  1  0.497949  0.237652  0.343079  1
  H  H124  1  0.167770  0.216618  0.146943  1
  H  H125  1  -0.075954  0.256579  0.146014  1
  H  H126  1  0.411759  0.179294  0.150047  1
  H  H127  1  -0.240057  0.348981  0.338429  1
  H  H128  1  0.747996  0.198651  0.344219  1
  H  H129  1  -0.322820  0.294041  0.144701  1
  H  H130  1  0.660571  0.141855  0.151560  1
  H  H131  1  -0.491289  0.388097  0.336578  1
  H  H132  1  0.997793  0.161324  0.345266  1
  H  H133  1  -0.576211  0.333860  0.143961  1
  H  H134  1  -0.711744  0.404329  0.290835  1
  H  H135  1  0.913520  0.106360  0.151641  1
  H  H136  1  1.179881  0.117973  0.299043  1
  H  H137  1  -0.754550  0.378922  0.188392  1
  H  H138  1  1.136152  0.089717  0.199888  1
  H  H139  1  -0.255681  -0.277777  -0.341632  1
  H  H140  1  -0.007001  -0.313491  -0.338694  1
  H  H141  1  -0.497949  -0.237652  -0.343079  1
  H  H142  1  -0.167770  -0.216618  -0.146943  1
  H  H143  1  0.075954  -0.256579  -0.146014  1
  H  H144  1  -0.411759  -0.179294  -0.150047  1
  H  H145  1  0.240057  -0.348981  -0.338429  1
  H  H146  1  -0.747996  -0.198651  -0.344219  1
  H  H147  1  0.322820  -0.294041  -0.144701  1
  H  H148  1  -0.660571  -0.141855  -0.151560  1
  H  H149  1  0.491289  -0.388097  -0.336578  1
  H  H150  1  -0.997793  -0.161324  -0.345266  1
  H  H151  1  0.576211  -0.333860  -0.143961  1
  H  H152  1  0.711744  -0.404329  -0.290835  1
  H  H153  1  -0.913520  -0.106360  -0.151641  1
  H  H154  1  -1.179881  -0.117973  -0.299043  1
  H  H155  1  0.754550  -0.378922  -0.188392  1
  H  H156  1  -1.136152  -0.089717  -0.199888  1
  H  H157  1  0.000869  0.528065  0.097910  1
  H  H158  1  -0.251349  0.555479  0.083298  1
  H  H159  1  0.243948  0.485948  0.111866  1
  H  H160  1  -0.000869  0.471935  -0.097910  1
  H  H161  1  -0.243948  0.514052  -0.111866  1
  H  H162  1  0.251349  0.444521  -0.083298  1
  H  H163  1  -0.502715  0.586911  0.069516  1
  H  H164  1  0.489655  0.446350  0.126375  1
  H  H165  1  -0.489655  0.553650  -0.126375  1
  H  H166  1  0.502715  0.413089  -0.069516  1
  H  H167  1  -0.760992  0.619866  0.055745  1
  H  H168  1  0.737001  0.409907  0.139821  1
  H  H169  1  -0.737001  0.590093  -0.139821  1
  H  H170  1  -0.962666  0.636258  -0.002830  1
  H  H171  1  0.760992  0.380134  -0.055745  1
  H  H172  1  0.953179  0.377412  0.103968  1
  H  H173  1  -0.953179  0.622588  -0.103968  1
  H  H174  1  0.962666  0.363742  0.002830  1
  H  H175  1  0.501453  -0.029161  0.402791  1
  H  H176  1  0.749622  -0.059173  0.418979  1
  H  H177  1  0.255642  0.009709  0.386940  1
  H  H178  1  0.498547  0.029161  0.597209  1
  H  H179  1  0.744358  -0.009709  0.613060  1
  H  H180  1  0.250378  0.059173  0.581021  1
  H  H181  1  1.004598  -0.091250  0.434310  1
  H  H182  1  0.009494  0.047436  0.371234  1
  H  H183  1  0.990506  -0.047436  0.628766  1
  H  H184  1  -0.004598  0.091250  0.565690  1
  H  H185  1  1.259780  -0.123156  0.449897  1
  H  H186  1  -0.247570  0.079334  0.355985  1
  H  H187  1  1.247570  -0.079334  0.644015  1
  H  H188  1  1.461815  -0.139116  0.509207  1
  H  H189  1  -0.259780  0.123156  0.550103  1
  H  H190  1  -0.455714  0.116906  0.390379  1
  H  H191  1  1.455714  -0.116906  0.609621  1
  H  H192  1  -0.461815  0.139116  0.490793  1
