# generated using pymatgen
data_H7C11
_symmetry_space_group_name_H-M   'P 1'
_cell_length_a   7.49440000
_cell_length_b   8.30590000
_cell_length_c   18.62550000
_cell_angle_alpha   90.93300000
_cell_angle_beta   97.23600000
_cell_angle_gamma   101.83400000
_symmetry_Int_Tables_number   1
_chemical_formula_structural   H7C11
_chemical_formula_sum   'H14 C22'
_cell_volume   1124.65642834
_cell_formula_units_Z   2
loop_
 _symmetry_equiv_pos_site_id
 _symmetry_equiv_pos_as_xyz
  1  'x, y, z'
loop_
 _atom_site_type_symbol
 _atom_site_label
 _atom_site_symmetry_multiplicity
 _atom_site_fract_x
 _atom_site_fract_y
 _atom_site_fract_z
 _atom_site_occupancy
  C  C1  1  0.564700  0.438200  0.566690  1
  C  C2  1  0.631500  0.604100  0.551570  1
  C  C3  1  0.436500  0.331700  0.515720  1
  C  C4  1  0.563500  0.668300  0.484280  1
  C  C5  1  0.762600  0.709700  0.601070  1
  C  C6  1  0.368500  0.395900  0.448430  1
  C  C7  1  0.374300  0.164600  0.528570  1
  C  C8  1  0.435300  0.561800  0.433310  1
  C  C9  1  0.625700  0.835400  0.471430  1
  C  C10  1  0.822300  0.873100  0.587720  1
  C  C11  1  0.237400  0.290300  0.398930  1
  C  C12  1  0.250400  0.060700  0.478300  1
  C  C13  1  0.749600  0.939300  0.521700  1
  C  C14  1  0.954000  0.983000  0.637020  1
  C  C15  1  0.177700  0.126900  0.412280  1
  C  C16  1  0.187400  -0.109300  0.489450  1
  C  C17  1  0.812600  1.109300  0.510550  1
  C  C18  1  1.007300  1.143200  0.624790  1
  C  C19  1  0.046000  0.017000  0.362980  1
  C  C20  1  0.065900  -0.209100  0.440010  1
  C  C21  1  0.934100  1.209100  0.559990  1
  C  C22  1  -0.007300  -0.143200  0.375210  1
  H  H23  1  0.613183  0.391296  0.618876  1
  H  H24  1  0.820297  0.662993  0.651858  1
  H  H25  1  0.424142  0.113546  0.579559  1
  H  H26  1  0.386817  0.608704  0.381124  1
  H  H27  1  0.575858  0.886454  0.420441  1
  H  H28  1  0.179703  0.337007  0.348142  1
  H  H29  1  1.018643  0.941526  0.687753  1
  H  H30  1  0.235266  -0.166739  0.539026  1
  H  H31  1  0.764734  1.166739  0.460974  1
  H  H32  1  1.108049  1.218304  0.666658  1
  H  H33  1  -0.018643  0.058474  0.312247  1
  H  H34  1  0.027771  -0.339908  0.452136  1
  H  H35  1  0.972229  1.339908  0.547864  1
  H  H36  1  -0.108049  -0.218304  0.333342  1
