# generated using pymatgen
data_H7C11
_symmetry_space_group_name_H-M   'P 1'
_cell_length_a   5.83300000
_cell_length_b   10.14600000
_cell_length_c   11.64200000
_cell_angle_alpha   76.25000000
_cell_angle_beta   76.93000000
_cell_angle_gamma   84.99000000
_symmetry_Int_Tables_number   1
_chemical_formula_structural   H7C11
_chemical_formula_sum   'H14 C22'
_cell_volume   651.49945891
_cell_formula_units_Z   2
loop_
 _symmetry_equiv_pos_site_id
 _symmetry_equiv_pos_as_xyz
  1  'x, y, z'
loop_
 _atom_site_type_symbol
 _atom_site_label
 _atom_site_symmetry_multiplicity
 _atom_site_fract_x
 _atom_site_fract_y
 _atom_site_fract_z
 _atom_site_occupancy
  C  C1  1  0.996000  0.570690  0.592470  1
  C  C2  1  1.159400  0.459830  0.579620  1
  C  C3  1  0.836200  0.611550  0.514280  1
  C  C4  1  1.163800  0.388450  0.485720  1
  C  C5  1  1.319400  0.417870  0.656460  1
  C  C6  1  0.840600  0.540170  0.420380  1
  C  C7  1  0.671700  0.720940  0.525060  1
  C  C8  1  1.004000  0.429310  0.407530  1
  C  C9  1  1.328300  0.279060  0.474940  1
  C  C10  1  1.479800  0.310240  0.644670  1
  C  C11  1  0.680600  0.582130  0.343540  1
  C  C12  1  0.514600  0.761100  0.448980  1
  C  C13  1  1.485400  0.238900  0.551020  1
  C  C14  1  1.644700  0.269400  0.721860  1
  C  C15  1  0.520200  0.689760  0.355330  1
  C  C16  1  0.344700  0.870980  0.459670  1
  C  C17  1  1.655300  0.129020  0.540330  1
  C  C18  1  1.801600  0.164500  0.708100  1
  C  C19  1  0.355300  0.730600  0.278140  1
  C  C20  1  0.194300  0.907080  0.383710  1
  C  C21  1  1.805700  0.092920  0.616290  1
  C  C22  1  0.198400  0.835500  0.291900  1
  H  H23  1  0.993181  0.625503  0.663758  1
  H  H24  1  1.319075  0.471210  0.728449  1
  H  H25  1  0.665683  0.777227  0.595681  1
  H  H26  1  1.006819  0.374497  0.336242  1
  H  H27  1  1.334317  0.222773  0.404319  1
  H  H28  1  0.680925  0.528790  0.271551  1
  H  H29  1  1.651083  0.320514  0.794430  1
  H  H30  1  0.329069  0.930121  0.529128  1
  H  H31  1  1.670931  0.069879  0.470872  1
  H  H32  1  1.923475  0.137924  0.770354  1
  H  H33  1  0.348917  0.679486  0.205570  1
  H  H34  1  0.070629  0.993273  0.396397  1
  H  H35  1  1.929371  0.006727  0.603603  1
  H  H36  1  0.076525  0.862076  0.229646  1
