# generated using pymatgen
data_H5C9S
_symmetry_space_group_name_H-M   'P 1'
_cell_length_a   7.15560000
_cell_length_b   32.35840000
_cell_length_c   7.32920000
_cell_angle_alpha   90.00000000
_cell_angle_beta   109.46800000
_cell_angle_gamma   90.00000000
_symmetry_Int_Tables_number   1
_chemical_formula_structural   H5C9S
_chemical_formula_sum   'H20 C36 S4'
_cell_volume   1600.00756675
_cell_formula_units_Z   4
loop_
 _symmetry_equiv_pos_site_id
 _symmetry_equiv_pos_as_xyz
  1  'x, y, z'
loop_
 _atom_site_type_symbol
 _atom_site_label
 _atom_site_symmetry_multiplicity
 _atom_site_fract_x
 _atom_site_fract_y
 _atom_site_fract_z
 _atom_site_occupancy
  C  C1  1  0.811000  0.443500  0.935400  1
  C  C2  1  0.788000  0.482240  1.019400  1
  C  C3  1  0.725700  0.436150  0.742600  1
  C  C4  1  0.887000  0.481600  1.228500  1
  C  C5  1  0.681600  0.513340  0.904400  1
  C  C6  1  0.976300  0.446060  1.285300  1
  C  C7  1  0.610700  0.467610  0.620200  1
  C  C8  1  0.592700  0.507140  0.702800  1
  C  C9  1  0.515200  0.460910  0.420100  1
  C  C10  1  0.484800  0.539090  0.579900  1
  C  C11  1  0.407300  0.492860  0.297200  1
  C  C12  1  0.389300  0.532390  0.379800  1
  C  C13  1  0.318400  0.486660  0.095600  1
  C  C14  1  0.274300  0.563850  0.257400  1
  C  C15  1  0.212000  0.517760  -0.019400  1
  C  C16  1  0.189000  0.556500  0.064600  1
  C  C17  1  0.113000  0.518400  -0.228500  1
  C  C18  1  0.023700  0.553940  -0.285300  1
  C  C19  1  0.189000  -0.056500  -0.435400  1
  C  C20  1  0.212000  -0.017760  -0.519400  1
  C  C21  1  0.274300  -0.063850  -0.242600  1
  C  C22  1  0.113000  -0.018400  -0.728500  1
  C  C23  1  0.318400  0.013340  -0.404400  1
  C  C24  1  0.023700  -0.053940  -0.785300  1
  C  C25  1  0.389300  -0.032390  -0.120200  1
  C  C26  1  0.407300  0.007140  -0.202800  1
  C  C27  1  0.484800  -0.039090  0.079900  1
  C  C28  1  0.515200  0.039090  -0.079900  1
  C  C29  1  0.592700  -0.007140  0.202800  1
  C  C30  1  0.610700  0.032390  0.120200  1
  C  C31  1  0.681600  -0.013340  0.404400  1
  C  C32  1  0.725700  0.063850  0.242600  1
  C  C33  1  0.788000  0.017760  0.519400  1
  C  C34  1  0.811000  0.056500  0.435400  1
  C  C35  1  0.887000  0.018400  0.728500  1
  C  C36  1  0.976300  0.053940  0.785300  1
  H  H37  1  0.749026  0.405669  0.687308  1
  H  H38  1  0.893783  0.506005  1.335000  1
  H  H39  1  0.667737  0.542887  0.973000  1
  H  H40  1  1.048535  0.447195  1.443263  1
  H  H41  1  0.525029  0.430272  0.358904  1
  H  H42  1  0.474971  0.569728  0.641096  1
  H  H43  1  0.332263  0.457113  0.027000  1
  H  H44  1  0.250974  0.594331  0.312692  1
  H  H45  1  0.106217  0.493995  -0.335000  1
  H  H46  1  -0.048535  0.552805  -0.443263  1
  H  H47  1  0.250974  -0.094331  -0.187308  1
  H  H48  1  0.106217  0.006005  -0.835000  1
  H  H49  1  0.332263  0.042887  -0.473000  1
  H  H50  1  -0.048535  -0.052805  -0.943263  1
  H  H51  1  0.474971  -0.069728  0.141096  1
  H  H52  1  0.525029  0.069728  -0.141096  1
  H  H53  1  0.667737  -0.042887  0.473000  1
  H  H54  1  0.749026  0.094331  0.187308  1
  H  H55  1  0.893783  -0.006005  0.835000  1
  H  H56  1  1.048535  0.052805  0.943263  1
  S  S57  1  0.958000  0.408830  1.106800  1
  S  S58  1  0.042000  0.591170  -0.106800  1
  S  S59  1  0.042000  -0.091170  -0.606800  1
  S  S60  1  0.958000  0.091170  0.606800  1
