# generated using pymatgen
data_H7C11
_symmetry_space_group_name_H-M   'P 1'
_cell_length_a   7.29820000
_cell_length_b   15.65470000
_cell_length_c   18.08880000
_cell_angle_alpha   86.14680000
_cell_angle_beta   87.62380000
_cell_angle_gamma   89.98530000
_symmetry_Int_Tables_number   1
_chemical_formula_structural   H7C11
_chemical_formula_sum   'H28 C44'
_cell_volume   2060.21451167
_cell_formula_units_Z   4
loop_
 _symmetry_equiv_pos_site_id
 _symmetry_equiv_pos_as_xyz
  1  'x, y, z'
loop_
 _atom_site_type_symbol
 _atom_site_label
 _atom_site_symmetry_multiplicity
 _atom_site_fract_x
 _atom_site_fract_y
 _atom_site_fract_z
 _atom_site_occupancy
  C  C1  1  0.008800  0.992560  0.578240  1
  C  C2  1  0.152200  1.034970  0.535320  1
  C  C3  1  -0.142900  0.957160  0.544190  1
  C  C4  1  0.142900  1.042840  0.455810  1
  C  C5  1  0.305900  1.069370  0.567790  1
  C  C6  1  -0.152200  0.965030  0.464680  1
  C  C7  1  -0.287000  0.914620  0.586190  1
  C  C8  1  -0.008800  1.007440  0.421760  1
  C  C9  1  0.287000  1.085380  0.413810  1
  C  C10  1  0.448900  1.109680  0.525860  1
  C  C11  1  -0.305900  0.930630  0.432210  1
  C  C12  1  -0.439200  0.881580  0.553870  1
  C  C13  1  0.439200  1.118420  0.446130  1
  C  C14  1  0.607100  1.143320  0.560070  1
  C  C15  1  -0.448900  0.890320  0.474140  1
  C  C16  1  -0.585000  0.839460  0.598310  1
  C  C17  1  0.585000  1.160540  0.401690  1
  C  C18  1  0.741900  1.182050  0.515010  1
  C  C19  1  -0.607100  0.856680  0.439930  1
  C  C20  1  -0.731600  0.809450  0.563160  1
  C  C21  1  0.731600  1.190550  0.436840  1
  C  C22  1  -0.741900  0.817950  0.484990  1
  C  C23  1  0.473500  0.493150  0.578450  1
  C  C24  1  0.632300  0.457140  0.545000  1
  C  C25  1  0.340200  0.535560  0.534160  1
  C  C26  1  0.659800  0.464440  0.465840  1
  C  C27  1  0.766900  0.414750  0.587570  1
  C  C28  1  0.367700  0.542860  0.455000  1
  C  C29  1  0.179900  0.570020  0.566180  1
  C  C30  1  0.526500  0.506850  0.421550  1
  C  C31  1  0.820100  0.429980  0.433820  1
  C  C32  1  0.925000  0.381030  0.556060  1
  C  C33  1  0.233100  0.585250  0.412430  1
  C  C34  1  0.045700  0.610680  0.523610  1
  C  C35  1  0.954300  0.389320  0.476390  1
  C  C36  1  1.062200  0.339170  0.601100  1
  C  C37  1  0.075000  0.618970  0.443940  1
  C  C38  1  -0.120100  0.644830  0.556730  1
  C  C39  1  1.120100  0.355170  0.443270  1
  C  C40  1  1.215300  0.308400  0.566900  1
  C  C41  1  -0.062200  0.660830  0.398900  1
  C  C42  1  -0.244500  0.683380  0.511840  1
  C  C43  1  1.244500  0.316620  0.488160  1
  C  C44  1  -0.215300  0.691600  0.433100  1
  H  H45  1  0.015354  0.987025  0.639017  1
  H  H46  1  0.314630  1.064548  0.628490  1
  H  H47  1  -0.280382  0.906858  0.646912  1
  H  H48  1  -0.015354  1.012975  0.360983  1
  H  H49  1  0.280382  1.093142  0.353088  1
  H  H50  1  -0.314630  0.935452  0.371510  1
  H  H51  1  0.624877  1.139453  0.620292  1
  H  H52  1  -0.584389  0.830207  0.659121  1
  H  H53  1  0.584389  1.169793  0.340879  1
  H  H54  1  0.861031  1.206870  0.542194  1
  H  H55  1  -0.624877  0.860547  0.379708  1
  H  H56  1  -0.842383  0.778149  0.598126  1
  H  H57  1  0.842383  1.221851  0.401874  1
  H  H58  1  -0.861031  0.793130  0.457806  1
  H  H59  1  0.453573  0.488149  0.639199  1
  H  H60  1  0.747633  0.407642  0.648308  1
  H  H61  1  0.158661  0.564975  0.626878  1
  H  H62  1  0.546427  0.511851  0.360801  1
  H  H63  1  0.841339  0.435025  0.373122  1
  H  H64  1  0.252367  0.592358  0.351692  1
  H  H65  1  1.049987  0.330652  0.661965  1
  H  H66  1  -0.151993  0.641440  0.616827  1
  H  H67  1  1.151993  0.358560  0.383173  1
  H  H68  1  1.315956  0.276725  0.603084  1
  H  H69  1  -0.049987  0.669348  0.338035  1
  H  H70  1  -0.369096  0.707983  0.539298  1
  H  H71  1  1.369096  0.292017  0.460702  1
  H  H72  1  -0.315956  0.723275  0.396916  1
