# generated using pymatgen
data_H7C11
_symmetry_space_group_name_H-M   'P 1'
_cell_length_a   11.74760000
_cell_length_b   12.57100000
_cell_length_c   15.14120000
_cell_angle_alpha   90.00000000
_cell_angle_beta   105.97700000
_cell_angle_gamma   90.00000000
_symmetry_Int_Tables_number   1
_chemical_formula_structural   H7C11
_chemical_formula_sum   'H28 C44'
_cell_volume   2149.66538134
_cell_formula_units_Z   4
loop_
 _symmetry_equiv_pos_site_id
 _symmetry_equiv_pos_as_xyz
  1  'x, y, z'
loop_
 _atom_site_type_symbol
 _atom_site_label
 _atom_site_symmetry_multiplicity
 _atom_site_fract_x
 _atom_site_fract_y
 _atom_site_fract_z
 _atom_site_occupancy
  C  C1  1  0.928400  0.909000  0.970600  1
  C  C2  1  1.023100  0.930300  0.932700  1
  C  C3  1  0.903900  0.977000  1.037500  1
  C  C4  1  1.096100  1.023000  0.962500  1
  C  C5  1  1.047700  0.864300  0.865300  1
  C  C6  1  0.976900  1.069700  1.067300  1
  C  C7  1  0.809600  0.958000  1.075900  1
  C  C8  1  1.071600  1.091000  1.029400  1
  C  C9  1  1.190400  1.042000  0.924100  1
  C  C10  1  1.140100  0.884400  0.827400  1
  C  C11  1  0.952300  1.135700  1.134700  1
  C  C12  1  0.785600  1.024100  1.141500  1
  C  C13  1  1.214400  0.975900  0.858500  1
  C  C14  1  1.165700  0.818000  0.758800  1
  C  C15  1  0.859900  1.115600  1.172600  1
  C  C16  1  0.689800  1.005500  1.180700  1
  C  C17  1  1.310200  0.994500  0.819300  1
  C  C18  1  1.257600  0.839100  0.723700  1
  C  C19  1  0.834300  1.182000  1.241200  1
  C  C20  1  0.669000  1.070800  1.245400  1
  C  C21  1  1.331000  0.929200  0.754600  1
  C  C22  1  0.742400  1.160900  1.276300  1
  C  C23  1  0.571600  1.409000  0.529400  1
  C  C24  1  0.476900  1.430300  0.567300  1
  C  C25  1  0.596100  1.477000  0.462500  1
  C  C26  1  0.403900  1.523000  0.537500  1
  C  C27  1  0.452300  1.364300  0.634700  1
  C  C28  1  0.523100  1.569700  0.432700  1
  C  C29  1  0.690400  1.458000  0.424100  1
  C  C30  1  0.428400  1.591000  0.470600  1
  C  C31  1  0.309600  1.542000  0.575900  1
  C  C32  1  0.359900  1.384400  0.672600  1
  C  C33  1  0.547700  1.635700  0.365300  1
  C  C34  1  0.714400  1.524100  0.358500  1
  C  C35  1  0.285600  1.475900  0.641500  1
  C  C36  1  0.334300  1.318000  0.741200  1
  C  C37  1  0.640100  1.615600  0.327400  1
  C  C38  1  0.810200  1.505500  0.319300  1
  C  C39  1  0.189800  1.494500  0.680700  1
  C  C40  1  0.242400  1.339100  0.776300  1
  C  C41  1  0.665700  1.682000  0.258800  1
  C  C42  1  0.831000  1.570800  0.254600  1
  C  C43  1  0.169000  1.429200  0.745400  1
  C  C44  1  0.757600  1.660900  0.223700  1
  H  H45  1  0.872870  0.838361  0.947660  1
  H  H46  1  0.992258  0.793894  0.841177  1
  H  H47  1  0.752103  0.888398  1.053654  1
  H  H48  1  1.127130  1.161639  1.052340  1
  H  H49  1  1.247897  1.111602  0.946346  1
  H  H50  1  1.007742  1.206106  1.158823  1
  H  H51  1  1.112173  0.747357  0.731754  1
  H  H52  1  0.629153  0.937656  1.160080  1
  H  H53  1  1.370847  1.062344  0.839920  1
  H  H54  1  1.272295  0.784293  0.671276  1
  H  H55  1  0.887827  1.252643  1.268246  1
  H  H56  1  0.593737  1.050985  1.272405  1
  H  H57  1  1.406263  0.949015  0.727595  1
  H  H58  1  0.727705  1.215707  1.328724  1
  H  H59  1  0.627130  1.338361  0.552340  1
  H  H60  1  0.507742  1.293894  0.658823  1
  H  H61  1  0.747897  1.388398  0.446346  1
  H  H62  1  0.372870  1.661639  0.447660  1
  H  H63  1  0.252103  1.611602  0.553654  1
  H  H64  1  0.492258  1.706106  0.341177  1
  H  H65  1  0.387827  1.247357  0.768246  1
  H  H66  1  0.870847  1.437656  0.339920  1
  H  H67  1  0.129153  1.562344  0.660080  1
  H  H68  1  0.227705  1.284293  0.828724  1
  H  H69  1  0.612173  1.752643  0.231754  1
  H  H70  1  0.906263  1.550985  0.227595  1
  H  H71  1  0.093737  1.449015  0.772405  1
  H  H72  1  0.772295  1.715707  0.171276  1
