# generated using pymatgen
data_H5C9S
_symmetry_space_group_name_H-M   'P 1'
_cell_length_a   9.69790000
_cell_length_b   10.27420000
_cell_length_c   11.44370000
_cell_angle_alpha   106.97810000
_cell_angle_beta   100.71430000
_cell_angle_gamma   90.55830000
_symmetry_Int_Tables_number   1
_chemical_formula_structural   H5C9S
_chemical_formula_sum   'H10 C18 S2'
_cell_volume   1069.03184403
_cell_formula_units_Z   2
loop_
 _symmetry_equiv_pos_site_id
 _symmetry_equiv_pos_as_xyz
  1  'x, y, z'
loop_
 _atom_site_type_symbol
 _atom_site_label
 _atom_site_symmetry_multiplicity
 _atom_site_fract_x
 _atom_site_fract_y
 _atom_site_fract_z
 _atom_site_occupancy
  C  C1  1  0.832300  0.398100  0.890100  1
  C  C2  1  0.793200  0.502300  0.832400  1
  C  C3  1  0.750400  0.365700  0.965000  1
  C  C4  1  0.902300  0.502500  0.762800  1
  C  C5  1  0.672900  0.565500  0.846900  1
  C  C6  1  1.019700  0.427000  0.781000  1
  C  C7  1  0.626500  0.431900  0.983500  1
  C  C8  1  0.585500  0.534500  0.922100  1
  C  C9  1  0.540100  0.400600  1.060100  1
  C  C10  1  0.459900  0.599400  0.939900  1
  C  C11  1  0.414500  0.465500  1.077900  1
  C  C12  1  0.373500  0.568100  1.016500  1
  C  C13  1  0.327100  0.434500  1.153100  1
  C  C14  1  0.249600  0.634300  1.035000  1
  C  C15  1  0.206800  0.497700  1.167600  1
  C  C16  1  0.167700  0.601900  1.109900  1
  C  C17  1  0.097700  0.497500  1.237200  1
  C  C18  1  -0.019700  0.573000  1.219000  1
  H  H19  1  0.783909  0.287033  1.009998  1
  H  H20  1  0.895921  0.560680  0.695320  1
  H  H21  1  0.646200  0.641947  0.797640  1
  H  H22  1  1.112257  0.444210  0.743201  1
  H  H23  1  0.571592  0.323316  1.107338  1
  H  H24  1  0.428408  0.676684  0.892662  1
  H  H25  1  0.353800  0.358053  1.202360  1
  H  H26  1  0.216091  0.712967  0.990002  1
  H  H27  1  0.104079  0.439320  1.304680  1
  H  H28  1  -0.112257  0.555790  1.256799  1
  S  S29  1  0.989200  0.324000  0.859600  1
  S  S30  1  0.010800  0.676000  1.140400  1
