# generated using pymatgen
data_H7C11
_symmetry_space_group_name_H-M   'P 1'
_cell_length_a   7.73040000
_cell_length_b   7.56950000
_cell_length_c   16.92930000
_cell_angle_alpha   77.16300000
_cell_angle_beta   89.07700000
_cell_angle_gamma   84.01500000
_symmetry_Int_Tables_number   1
_chemical_formula_structural   H7C11
_chemical_formula_sum   'H14 C22'
_cell_volume   960.57276075
_cell_formula_units_Z   2
loop_
 _symmetry_equiv_pos_site_id
 _symmetry_equiv_pos_as_xyz
  1  'x, y, z'
loop_
 _atom_site_type_symbol
 _atom_site_label
 _atom_site_symmetry_multiplicity
 _atom_site_fract_x
 _atom_site_fract_y
 _atom_site_fract_z
 _atom_site_occupancy
  C  C1  1  0.441600  0.440400  0.580580  1
  C  C2  1  0.392600  0.622100  0.538280  1
  C  C3  1  0.548000  0.318900  0.544350  1
  C  C4  1  0.452000  0.681100  0.455650  1
  C  C5  1  0.289400  0.747700  0.573820  1
  C  C6  1  0.607400  0.377900  0.461720  1
  C  C7  1  0.597800  0.138000  0.584950  1
  C  C8  1  0.558400  0.559600  0.419420  1
  C  C9  1  0.402200  0.862000  0.415050  1
  C  C10  1  0.245300  0.925700  0.533450  1
  C  C11  1  0.710600  0.252300  0.426180  1
  C  C12  1  0.696600  0.014900  0.548840  1
  C  C13  1  0.303400  0.985100  0.451160  1
  C  C14  1  0.143000  1.055700  0.569570  1
  C  C15  1  0.754700  0.074300  0.466550  1
  C  C16  1  0.744300  -0.169700  0.589490  1
  C  C17  1  0.255700  1.169700  0.410510  1
  C  C18  1  0.102600  1.229200  0.528240  1
  C  C19  1  0.857000  -0.055700  0.430430  1
  C  C20  1  0.839900  -0.288000  0.552660  1
  C  C21  1  0.160100  1.288000  0.447340  1
  C  C22  1  0.897400  -0.229200  0.471760  1
  H  H23  1  0.396103  0.392684  0.642825  1
  H  H24  1  0.241077  0.704856  0.635887  1
  H  H25  1  0.557486  0.090446  0.648061  1
  H  H26  1  0.603897  0.607316  0.357175  1
  H  H27  1  0.442514  0.909554  0.351939  1
  H  H28  1  0.758923  0.295144  0.364113  1
  H  H29  1  0.093306  1.020777  0.631748  1
  H  H30  1  0.705457  -0.223464  0.652320  1
  H  H31  1  0.294543  1.223464  0.347680  1
  H  H32  1  0.024067  1.321209  0.559982  1
  H  H33  1  0.906694  -0.020777  0.368252  1
  H  H34  1  0.870140  -0.428563  0.587638  1
  H  H35  1  0.129860  1.428563  0.412362  1
  H  H36  1  0.975933  -0.321209  0.440018  1
