# generated using pymatgen
data_H7(C5S)3
_symmetry_space_group_name_H-M   'P 1'
_cell_length_a   10.15470000
_cell_length_b   10.38530000
_cell_length_c   14.13530000
_cell_angle_alpha   78.72300000
_cell_angle_beta   82.09000000
_cell_angle_gamma   69.28500000
_symmetry_Int_Tables_number   1
_chemical_formula_structural   H7(C5S)3
_chemical_formula_sum   'H14 C30 S6'
_cell_volume   1363.59926630
_cell_formula_units_Z   2
loop_
 _symmetry_equiv_pos_site_id
 _symmetry_equiv_pos_as_xyz
  1  'x, y, z'
loop_
 _atom_site_type_symbol
 _atom_site_label
 _atom_site_symmetry_multiplicity
 _atom_site_fract_x
 _atom_site_fract_y
 _atom_site_fract_z
 _atom_site_occupancy
  C  C1  1  0.417210  0.440310  0.465940  1
  C  C2  1  0.495740  0.370200  0.547370  1
  C  C3  1  0.419130  0.571090  0.417530  1
  C  C4  1  0.472800  0.240000  0.581500  1
  C  C5  1  0.580870  0.428910  0.582470  1
  C  C6  1  0.382760  0.214800  0.531590  1
  C  C7  1  0.504260  0.629800  0.452630  1
  C  C8  1  0.582790  0.559690  0.534060  1
  C  C9  1  0.336660  0.094310  0.548910  1
  C  C10  1  0.527200  0.760000  0.418500  1
  C  C11  1  0.255100  0.061400  0.497120  1
  C  C12  1  0.617240  0.785200  0.468410  1
  C  C13  1  0.228900  -0.065000  0.535610  1
  C  C14  1  0.300200  -0.131500  0.621300  1
  C  C15  1  0.663340  0.905690  0.451090  1
  C  C16  1  0.150300  -0.128700  0.499900  1
  C  C17  1  0.295900  -0.259100  0.671200  1
  C  C18  1  0.744900  0.938600  0.502880  1
  C  C19  1  0.142400  -0.254000  0.551400  1
  C  C20  1  0.215200  -0.321200  0.636300  1
  C  C21  1  0.771100  1.065000  0.464390  1
  C  C22  1  0.699800  1.131500  0.378700  1
  C  C23  1  0.192600  -0.452000  0.673600  1
  C  C24  1  0.849700  1.128700  0.500100  1
  C  C25  1  0.704100  1.259100  0.328800  1
  C  C26  1  0.105700  -0.477500  0.622300  1
  C  C27  1  0.857600  1.254000  0.448600  1
  C  C28  1  0.784800  1.321200  0.363700  1
  C  C29  1  0.807400  1.452000  0.326400  1
  C  C30  1  0.894300  1.477500  0.377700  1
  H  H31  1  0.356695  0.625167  0.354870  1
  H  H32  1  0.521951  0.163087  0.643060  1
  H  H33  1  0.643305  0.374833  0.645130  1
  H  H34  1  0.478049  0.836913  0.356940  1
  H  H35  1  0.214174  0.130515  0.430378  1
  H  H36  1  0.096044  -0.081427  0.432974  1
  H  H37  1  0.354380  -0.309237  0.736110  1
  H  H38  1  0.785826  0.869485  0.569622  1
  H  H39  1  0.238496  -0.527161  0.736840  1
  H  H40  1  0.903956  1.081427  0.567026  1
  H  H41  1  0.645620  1.309237  0.263890  1
  H  H42  1  0.086368  -0.575571  0.653115  1
  H  H43  1  0.761504  1.527161  0.263160  1
  H  H44  1  0.913632  1.575571  0.346885  1
  S  S45  1  0.321430  0.348460  0.434650  1
  S  S46  1  0.678570  0.651540  0.565350  1
  S  S47  1  0.390940  -0.032500  0.650910  1
  S  S48  1  0.609060  1.032500  0.349090  1
  S  S49  1  0.048630  -0.351670  0.523450  1
  S  S50  1  0.951370  1.351670  0.476550  1
