# generated using pymatgen
data_H5C9S
_symmetry_space_group_name_H-M   'P 1'
_cell_length_a   9.29620000
_cell_length_b   10.18610000
_cell_length_c   11.48730000
_cell_angle_alpha   109.66870000
_cell_angle_beta   95.20660000
_cell_angle_gamma   91.55900000
_symmetry_Int_Tables_number   1
_chemical_formula_structural   H5C9S
_chemical_formula_sum   'H10 C18 S2'
_cell_volume   1018.12773349
_cell_formula_units_Z   2
loop_
 _symmetry_equiv_pos_site_id
 _symmetry_equiv_pos_as_xyz
  1  'x, y, z'
loop_
 _atom_site_type_symbol
 _atom_site_label
 _atom_site_symmetry_multiplicity
 _atom_site_fract_x
 _atom_site_fract_y
 _atom_site_fract_z
 _atom_site_occupancy
  C  C1  1  0.651000  0.096000  0.127000  1
  C  C2  1  0.514000  0.143100  0.163000  1
  C  C3  1  0.698000  -0.005000  0.183000  1
  C  C4  1  0.735360  0.133500  0.048930  1
  C  C5  1  0.457500  0.086800  0.241400  1
  C  C6  1  0.816900  -0.064950  0.160770  1
  C  C7  1  0.867120  0.067450  0.023660  1
  C  C8  1  0.909200  -0.033330  0.081080  1
  C  C9  1  0.959360  0.099220  -0.055960  1
  C  C10  1  1.040640  -0.099220  0.055960  1
  C  C11  1  1.090800  0.033330  -0.081080  1
  C  C12  1  1.132880  -0.067450  -0.023660  1
  C  C13  1  1.183100  0.064950  -0.160770  1
  C  C14  1  1.264640  -0.133500  -0.048930  1
  C  C15  1  1.302000  0.005000  -0.183000  1
  C  C16  1  1.349000  -0.096000  -0.127000  1
  C  C17  1  1.486000  -0.143100  -0.163000  1
  C  C18  1  1.542500  -0.086800  -0.241400  1
  H  H19  1  0.454684  0.219289  0.131758  1
  H  H20  1  0.699225  0.212441  0.008678  1
  H  H21  1  0.351574  0.125438  0.267554  1
  H  H22  1  0.838929  -0.140785  0.208357  1
  H  H23  1  0.928175  0.176913  -0.099317  1
  H  H24  1  1.071825  -0.176913  0.099317  1
  H  H25  1  1.161071  0.140785  -0.208357  1
  H  H26  1  1.300775  -0.212441  -0.008678  1
  H  H27  1  1.545316  -0.219289  -0.131758  1
  H  H28  1  1.648426  -0.125438  -0.267554  1
  S  S29  1  0.570700  -0.031400  0.277900  1
  S  S30  1  1.429300  0.031400  -0.277900  1
