# generated using pymatgen
data_H5C9S
_symmetry_space_group_name_H-M   'P 1'
_cell_length_a   10.70050000
_cell_length_b   16.68550000
_cell_length_c   17.73870000
_cell_angle_alpha   97.47200000
_cell_angle_beta   104.92300000
_cell_angle_gamma   102.92500000
_symmetry_Int_Tables_number   1
_chemical_formula_structural   H5C9S
_chemical_formula_sum   'H20 C36 S4'
_cell_volume   2922.96645364
_cell_formula_units_Z   4
loop_
 _symmetry_equiv_pos_site_id
 _symmetry_equiv_pos_as_xyz
  1  'x, y, z'
loop_
 _atom_site_type_symbol
 _atom_site_label
 _atom_site_symmetry_multiplicity
 _atom_site_fract_x
 _atom_site_fract_y
 _atom_site_fract_z
 _atom_site_occupancy
  C  C1  1  0.032170  0.400770  0.426620  1
  C  C2  1  0.067420  0.419590  0.511470  1
  C  C3  1  -0.084970  0.343370  0.381670  1
  C  C4  1  0.195780  0.481890  0.546400  1
  C  C5  1  -0.016490  0.379010  0.549830  1
  C  C6  1  0.253520  0.506460  0.490000  1
  C  C7  1  -0.172070  0.299960  0.420010  1
  C  C8  1  -0.137010  0.317700  0.505830  1
  C  C9  1  -0.291770  0.237790  0.375910  1
  C  C10  1  -0.222130  0.273320  0.544280  1
  C  C11  1  -0.373630  0.190430  0.414520  1
  C  C12  1  -0.339060  0.208950  0.500270  1
  C  C13  1  -0.489560  0.125150  0.370490  1
  C  C14  1  -0.423100  0.162810  0.538370  1
  C  C15  1  -0.568440  0.082220  0.409710  1
  C  C16  1  -0.536510  0.100970  0.494610  1
  C  C17  1  -0.635730  0.048250  0.522780  1
  C  C18  1  -0.735060  -0.006940  0.460770  1
  C  C19  1  -0.032170  0.599230  0.573380  1
  C  C20  1  -0.067420  0.580410  0.488530  1
  C  C21  1  0.084970  0.656630  0.618330  1
  C  C22  1  -0.195780  0.518110  0.453600  1
  C  C23  1  0.016490  0.620990  0.450170  1
  C  C24  1  -0.253520  0.493540  0.510000  1
  C  C25  1  0.172070  0.700040  0.579990  1
  C  C26  1  0.137010  0.682300  0.494170  1
  C  C27  1  0.291770  0.762210  0.624090  1
  C  C28  1  0.222130  0.726680  0.455720  1
  C  C29  1  0.373630  0.809570  0.585480  1
  C  C30  1  0.339060  0.791050  0.499730  1
  C  C31  1  0.489560  0.874850  0.629510  1
  C  C32  1  0.423100  0.837190  0.461630  1
  C  C33  1  0.568440  0.917780  0.590290  1
  C  C34  1  0.536510  0.899030  0.505390  1
  C  C35  1  0.635730  0.951750  0.477220  1
  C  C36  1  0.735060  1.006940  0.539230  1
  H  H37  1  -0.108496  0.332414  0.316441  1
  H  H38  1  0.245074  0.508226  0.610150  1
  H  H39  1  0.012568  0.395464  0.615200  1
  H  H40  1  0.352363  0.552120  0.516389  1
  H  H41  1  -0.321712  0.226071  0.310464  1
  H  H42  1  -0.196960  0.289137  0.609528  1
  H  H43  1  -0.518625  0.107617  0.305181  1
  H  H44  1  -0.399694  0.175322  0.603608  1
  H  H45  1  -0.635654  0.049954  0.584991  1
  H  H46  1  -0.811514  -0.046615  0.481128  1
  H  H47  1  0.108496  0.667586  0.683559  1
  H  H48  1  -0.245074  0.491774  0.389850  1
  H  H49  1  -0.012568  0.604536  0.384800  1
  H  H50  1  -0.352363  0.447880  0.483611  1
  H  H51  1  0.321712  0.773929  0.689536  1
  H  H52  1  0.196960  0.710863  0.390472  1
  H  H53  1  0.518625  0.892383  0.694819  1
  H  H54  1  0.399694  0.824678  0.396392  1
  H  H55  1  0.635654  0.950046  0.415009  1
  H  H56  1  0.811514  1.046615  0.518872  1
  S  S57  1  0.155180  0.458930  0.391930  1
  S  S58  1  -0.714030  0.000330  0.366710  1
  S  S59  1  -0.155180  0.541070  0.608070  1
  S  S60  1  0.714030  0.999670  0.633290  1
