# generated using pymatgen
data_H2C3
_symmetry_space_group_name_H-M   'P 1'
_cell_length_a   11.32500000
_cell_length_b   11.48780000
_cell_length_c   19.14900000
_cell_angle_alpha   90.00000000
_cell_angle_beta   101.67640000
_cell_angle_gamma   90.00000000
_symmetry_Int_Tables_number   1
_chemical_formula_structural   H2C3
_chemical_formula_sum   'H48 C72'
_cell_volume   2439.71841542
_cell_formula_units_Z   24
loop_
 _symmetry_equiv_pos_site_id
 _symmetry_equiv_pos_as_xyz
  1  'x, y, z'
loop_
 _atom_site_type_symbol
 _atom_site_label
 _atom_site_symmetry_multiplicity
 _atom_site_fract_x
 _atom_site_fract_y
 _atom_site_fract_z
 _atom_site_occupancy
  C  C1  1  0.391590  0.349020  0.396300  1
  C  C2  1  0.507670  0.389810  0.430280  1
  C  C3  1  0.331160  0.396240  0.331080  1
  C  C4  1  0.563970  0.481330  0.397110  1
  C  C5  1  0.569670  0.342790  0.495230  1
  C  C6  1  0.387410  0.487380  0.297840  1
  C  C7  1  0.214810  0.356230  0.296430  1
  C  C8  1  0.502550  0.528190  0.330670  1
  C  C9  1  0.679030  0.519970  0.430940  1
  C  C10  1  0.683340  0.380510  0.527860  1
  C  C11  1  0.323680  0.533050  0.231430  1
  C  C12  1  0.157680  0.401620  0.233340  1
  C  C13  1  0.739930  0.472230  0.494750  1
  C  C14  1  0.747390  0.331800  0.593480  1
  C  C15  1  0.212630  0.492440  0.200400  1
  C  C16  1  0.858270  0.508550  0.528510  1
  C  C17  1  0.860100  0.368700  0.623240  1
  C  C18  1  0.916390  0.457870  0.589660  1
  C  C19  1  0.108410  -0.150980  0.103700  1
  C  C20  1  -0.007670  -0.110190  0.069720  1
  C  C21  1  0.168840  -0.103760  0.168920  1
  C  C22  1  -0.063970  -0.018670  0.102890  1
  C  C23  1  -0.069670  -0.157210  0.004770  1
  C  C24  1  0.112590  -0.012620  0.202160  1
  C  C25  1  0.285190  -0.143770  0.203570  1
  C  C26  1  -0.002550  0.028190  0.169330  1
  C  C27  1  -0.179030  0.019970  0.069060  1
  C  C28  1  -0.183340  -0.119490  -0.027860  1
  C  C29  1  0.176320  0.033050  0.268570  1
  C  C30  1  0.342320  -0.098380  0.266660  1
  C  C31  1  -0.239930  -0.027770  0.005250  1
  C  C32  1  -0.247390  -0.168200  -0.093480  1
  C  C33  1  0.287370  -0.007560  0.299600  1
  C  C34  1  -0.358270  0.008550  -0.028510  1
  C  C35  1  -0.360100  -0.131300  -0.123240  1
  C  C36  1  -0.416390  -0.042130  -0.089660  1
  C  C37  1  0.608410  0.650980  0.603700  1
  C  C38  1  0.492330  0.610190  0.569720  1
  C  C39  1  0.668840  0.603760  0.668920  1
  C  C40  1  0.436030  0.518670  0.602890  1
  C  C41  1  0.430330  0.657210  0.504770  1
  C  C42  1  0.612590  0.512620  0.702160  1
  C  C43  1  0.785190  0.643770  0.703570  1
  C  C44  1  0.497450  0.471810  0.669330  1
  C  C45  1  0.320970  0.480030  0.569060  1
  C  C46  1  0.316660  0.619490  0.472140  1
  C  C47  1  0.676320  0.466950  0.768570  1
  C  C48  1  0.842320  0.598380  0.766660  1
  C  C49  1  0.260070  0.527770  0.505250  1
  C  C50  1  0.252610  0.668200  0.406520  1
  C  C51  1  0.787370  0.507560  0.799600  1
  C  C52  1  0.141730  0.491450  0.471490  1
  C  C53  1  0.139900  0.631300  0.376760  1
  C  C54  1  0.083610  0.542130  0.410340  1
  C  C55  1  -0.108410  0.150980  -0.103700  1
  C  C56  1  0.007670  0.110190  -0.069720  1
  C  C57  1  -0.168840  0.103760  -0.168920  1
  C  C58  1  0.063970  0.018670  -0.102890  1
  C  C59  1  0.069670  0.157210  -0.004770  1
  C  C60  1  -0.112590  0.012620  -0.202160  1
  C  C61  1  -0.285190  0.143770  -0.203570  1
  C  C62  1  0.002550  -0.028190  -0.169330  1
  C  C63  1  0.179030  -0.019970  -0.069060  1
  C  C64  1  0.183340  0.119490  0.027860  1
  C  C65  1  -0.176320  -0.033050  -0.268570  1
  C  C66  1  -0.342320  0.098380  -0.266660  1
  C  C67  1  0.239930  0.027770  -0.005250  1
  C  C68  1  0.247390  0.168200  0.093480  1
  C  C69  1  -0.287370  0.007560  -0.299600  1
  C  C70  1  0.358270  -0.008550  0.028510  1
  C  C71  1  0.360100  0.131300  0.123240  1
  C  C72  1  0.416390  0.042130  0.089660  1
  H  H73  1  0.347525  0.279332  0.421037  1
  H  H74  1  0.527536  0.273689  0.521585  1
  H  H75  1  0.167003  0.287289  0.319389  1
  H  H76  1  0.544789  0.597124  0.304243  1
  H  H77  1  0.723034  0.590152  0.406582  1
  H  H78  1  0.361688  0.602351  0.203013  1
  H  H79  1  0.068709  0.365557  0.209407  1
  H  H80  1  0.708513  0.263402  0.622130  1
  H  H81  1  0.168116  0.532280  0.149642  1
  H  H82  1  0.906532  0.578275  0.506559  1
  H  H83  1  0.904817  0.327273  0.673441  1
  H  H84  1  1.008270  0.488780  0.611801  1
  H  H85  1  0.152475  -0.220668  0.078963  1
  H  H86  1  -0.027536  -0.226311  -0.021585  1
  H  H87  1  0.332997  -0.212711  0.180611  1
  H  H88  1  -0.044789  0.097124  0.195757  1
  H  H89  1  -0.223034  0.090152  0.093418  1
  H  H90  1  0.138312  0.102351  0.296987  1
  H  H91  1  0.431291  -0.134443  0.290593  1
  H  H92  1  -0.208513  -0.236598  -0.122130  1
  H  H93  1  0.331884  0.032280  0.350358  1
  H  H94  1  -0.406532  0.078275  -0.006559  1
  H  H95  1  -0.404817  -0.172727  -0.173441  1
  H  H96  1  -0.508270  -0.011220  -0.111801  1
  H  H97  1  0.652475  0.720668  0.578963  1
  H  H98  1  0.472464  0.726311  0.478415  1
  H  H99  1  0.832997  0.712711  0.680611  1
  H  H100  1  0.455211  0.402876  0.695757  1
  H  H101  1  0.276966  0.409848  0.593418  1
  H  H102  1  0.638312  0.397649  0.796987  1
  H  H103  1  0.931291  0.634443  0.790593  1
  H  H104  1  0.291487  0.736598  0.377870  1
  H  H105  1  0.831884  0.467720  0.850358  1
  H  H106  1  0.093468  0.421725  0.493441  1
  H  H107  1  0.095183  0.672727  0.326559  1
  H  H108  1  -0.008270  0.511220  0.388199  1
  H  H109  1  -0.152475  0.220668  -0.078963  1
  H  H110  1  0.027536  0.226311  0.021585  1
  H  H111  1  -0.332997  0.212711  -0.180611  1
  H  H112  1  0.044789  -0.097124  -0.195757  1
  H  H113  1  0.223034  -0.090152  -0.093418  1
  H  H114  1  -0.138312  -0.102351  -0.296987  1
  H  H115  1  -0.431291  0.134443  -0.290593  1
  H  H116  1  0.208513  0.236598  0.122130  1
  H  H117  1  -0.331884  -0.032280  -0.350358  1
  H  H118  1  0.406532  -0.078275  0.006559  1
  H  H119  1  0.404817  0.172727  0.173441  1
  H  H120  1  0.508270  0.011220  0.111801  1
