# generated using pymatgen
data_H7C11
_symmetry_space_group_name_H-M   'P 1'
_cell_length_a   14.33310000
_cell_length_b   9.11440000
_cell_length_c   18.74590000
_cell_angle_alpha   90.00000000
_cell_angle_beta   91.47190000
_cell_angle_gamma   90.00000000
_symmetry_Int_Tables_number   1
_chemical_formula_structural   H7C11
_chemical_formula_sum   'H28 C44'
_cell_volume   2448.11147196
_cell_formula_units_Z   4
loop_
 _symmetry_equiv_pos_site_id
 _symmetry_equiv_pos_as_xyz
  1  'x, y, z'
loop_
 _atom_site_type_symbol
 _atom_site_label
 _atom_site_symmetry_multiplicity
 _atom_site_fract_x
 _atom_site_fract_y
 _atom_site_fract_z
 _atom_site_occupancy
  C  C1  1  0.065460  0.511000  0.444630  1
  C  C2  1  0.012120  0.380900  0.451130  1
  C  C3  1  0.053500  0.629900  0.491890  1
  C  C4  1  -0.053500  0.370100  0.508110  1
  C  C5  1  0.021490  0.262200  0.403640  1
  C  C6  1  -0.012120  0.619100  0.548870  1
  C  C7  1  0.104280  0.760500  0.484970  1
  C  C8  1  -0.065460  0.489000  0.555370  1
  C  C9  1  -0.104280  0.239500  0.515030  1
  C  C10  1  -0.029690  0.134000  0.411180  1
  C  C11  1  -0.021490  0.737800  0.596360  1
  C  C12  1  0.094200  0.877200  0.531040  1
  C  C13  1  -0.094200  0.122800  0.468960  1
  C  C14  1  -0.021090  0.012500  0.363720  1
  C  C15  1  0.029690  0.866000  0.588820  1
  C  C16  1  0.145980  1.009300  0.523330  1
  C  C17  1  -0.145980  -0.009300  0.476670  1
  C  C18  1  -0.071710  -0.112500  0.372660  1
  C  C19  1  0.021090  0.987500  0.636280  1
  C  C20  1  0.136080  1.123900  0.569300  1
  C  C21  1  -0.136080  -0.123900  0.430700  1
  C  C22  1  0.071710  1.112500  0.627340  1
  C  C23  1  -0.065460  0.011000  1.055370  1
  C  C24  1  -0.012120  -0.119100  1.048870  1
  C  C25  1  -0.053500  0.129900  1.008110  1
  C  C26  1  0.053500  -0.129900  0.991890  1
  C  C27  1  -0.021490  -0.237800  1.096360  1
  C  C28  1  0.012120  0.119100  0.951130  1
  C  C29  1  -0.104280  0.260500  1.015030  1
  C  C30  1  0.065460  -0.011000  0.944630  1
  C  C31  1  0.104280  -0.260500  0.984970  1
  C  C32  1  0.029690  -0.366000  1.088820  1
  C  C33  1  0.021490  0.237800  0.903640  1
  C  C34  1  -0.094200  0.377200  0.968960  1
  C  C35  1  0.094200  -0.377200  1.031040  1
  C  C36  1  0.021090  -0.487500  1.136280  1
  C  C37  1  -0.029690  0.366000  0.911180  1
  C  C38  1  -0.145980  0.509300  0.976670  1
  C  C39  1  0.145980  -0.509300  1.023330  1
  C  C40  1  0.071710  -0.612500  1.127340  1
  C  C41  1  -0.021090  0.487500  0.863720  1
  C  C42  1  -0.136080  0.623900  0.930700  1
  C  C43  1  0.136080  -0.623900  1.069300  1
  C  C44  1  -0.071710  0.612500  0.872660  1
  H  H45  1  0.116892  0.519821  0.402287  1
  H  H46  1  0.070185  0.269840  0.359384  1
  H  H47  1  0.154065  0.771871  0.441623  1
  H  H48  1  -0.116892  0.480179  0.597713  1
  H  H49  1  -0.154065  0.228129  0.558377  1
  H  H50  1  -0.070185  0.730160  0.640616  1
  H  H51  1  0.026351  0.015304  0.318538  1
  H  H52  1  0.195658  1.023395  0.480096  1
  H  H53  1  -0.195658  -0.023395  0.519904  1
  H  H54  1  -0.060927  -0.201589  0.334154  1
  H  H55  1  -0.026351  0.984696  0.681462  1
  H  H56  1  0.178568  1.222184  0.559885  1
  H  H57  1  -0.178568  -0.222184  0.440115  1
  H  H58  1  0.060927  1.201589  0.665846  1
  H  H59  1  -0.116892  0.019821  1.097713  1
  H  H60  1  -0.070185  -0.230160  1.140616  1
  H  H61  1  -0.154065  0.271871  1.058377  1
  H  H62  1  0.116892  -0.019821  0.902287  1
  H  H63  1  0.154065  -0.271871  0.941623  1
  H  H64  1  0.070185  0.230160  0.859384  1
  H  H65  1  -0.026351  -0.484696  1.181462  1
  H  H66  1  -0.195658  0.523395  1.019904  1
  H  H67  1  0.195658  -0.523395  0.980096  1
  H  H68  1  0.060927  -0.701589  1.165846  1
  H  H69  1  0.026351  0.484696  0.818538  1
  H  H70  1  -0.178568  0.722184  0.940115  1
  H  H71  1  0.178568  -0.722184  1.059885  1
  H  H72  1  -0.060927  0.701589  0.834154  1
