# generated using pymatgen
data_H7C11
_symmetry_space_group_name_H-M   'P 1'
_cell_length_a   8.46550000
_cell_length_b   9.65310000
_cell_length_c   16.31820000
_cell_angle_alpha   81.12200000
_cell_angle_beta   88.62600000
_cell_angle_gamma   72.30400000
_symmetry_Int_Tables_number   1
_chemical_formula_structural   H7C11
_chemical_formula_sum   'H14 C22'
_cell_volume   1254.80545635
_cell_formula_units_Z   2
loop_
 _symmetry_equiv_pos_site_id
 _symmetry_equiv_pos_as_xyz
  1  'x, y, z'
loop_
 _atom_site_type_symbol
 _atom_site_label
 _atom_site_symmetry_multiplicity
 _atom_site_fract_x
 _atom_site_fract_y
 _atom_site_fract_z
 _atom_site_occupancy
  C  C1  1  0.032200  0.068500  0.066370  1
  C  C2  1  -0.131300  0.107700  0.033180  1
  C  C3  1  0.163900  -0.037200  0.033990  1
  C  C4  1  -0.163900  0.037200  -0.033990  1
  C  C5  1  -0.263500  0.216000  0.061430  1
  C  C6  1  0.131300  -0.107700  -0.033180  1
  C  C7  1  0.327900  -0.075500  0.064430  1
  C  C8  1  -0.032200  -0.068500  -0.066370  1
  C  C9  1  -0.327900  0.075500  -0.064430  1
  C  C10  1  -0.423300  0.255700  0.028610  1
  C  C11  1  0.263500  -0.216000  -0.061430  1
  C  C12  1  0.456300  -0.181100  0.035360  1
  C  C13  1  -0.456300  0.181100  -0.035360  1
  C  C14  1  -0.556000  0.368000  0.056080  1
  C  C15  1  0.423300  -0.255700  -0.028610  1
  C  C16  1  0.623800  -0.218600  0.065860  1
  C  C17  1  -0.623800  0.218600  -0.065860  1
  C  C18  1  -0.711900  0.401600  0.024210  1
  C  C19  1  0.556000  -0.368000  -0.056080  1
  C  C20  1  0.745800  -0.324400  0.036940  1
  C  C21  1  -0.745800  0.324400  -0.036940  1
  C  C22  1  0.711900  -0.401600  -0.024210  1
  H  H23  1  0.057184  0.120746  0.117885  1
  H  H24  1  -0.240840  0.272321  0.111569  1
  H  H25  1  0.357221  -0.020070  0.113444  1
  H  H26  1  -0.057184  -0.120746  -0.117885  1
  H  H27  1  -0.357221  0.020070  -0.113444  1
  H  H28  1  0.240840  -0.272321  -0.111569  1
  H  H29  1  -0.537389  0.431133  0.103683  1
  H  H30  1  0.660179  -0.163992  0.113368  1
  H  H31  1  -0.660179  0.163992  -0.113368  1
  H  H32  1  -0.809222  0.489988  0.047567  1
  H  H33  1  0.537389  -0.431133  -0.103683  1
  H  H34  1  0.871489  -0.347458  0.062924  1
  H  H35  1  -0.871489  0.347458  -0.062924  1
  H  H36  1  0.809222  -0.489988  -0.047567  1
