# generated using pymatgen
data_H8C13
_symmetry_space_group_name_H-M   'P 1'
_cell_length_a   13.06760000
_cell_length_b   18.33780000
_cell_length_c   20.13770000
_cell_angle_alpha   90.00000000
_cell_angle_beta   108.23520000
_cell_angle_gamma   90.00000000
_symmetry_Int_Tables_number   1
_chemical_formula_structural   H8C13
_chemical_formula_sum   'H64 C104'
_cell_volume   4583.27530776
_cell_formula_units_Z   8
loop_
 _symmetry_equiv_pos_site_id
 _symmetry_equiv_pos_as_xyz
  1  'x, y, z'
loop_
 _atom_site_type_symbol
 _atom_site_label
 _atom_site_symmetry_multiplicity
 _atom_site_fract_x
 _atom_site_fract_y
 _atom_site_fract_z
 _atom_site_occupancy
  C  C1  1  0.752800  0.629800  0.416000  1
  C  C2  1  0.650400  0.597500  0.407600  1
  C  C3  1  0.815500  0.608200  0.373300  1
  C  C4  1  0.612300  0.539800  0.356700  1
  C  C5  1  0.586700  0.618400  0.448500  1
  C  C6  1  0.776000  0.551900  0.321100  1
  C  C7  1  0.917800  0.638900  0.380800  1
  C  C8  1  0.675900  0.517900  0.314200  1
  C  C9  1  0.514600  0.506200  0.351900  1
  C  C10  1  0.487700  0.585300  0.443000  1
  C  C11  1  0.839900  0.531400  0.279700  1
  C  C12  1  0.979600  0.617600  0.340000  1
  C  C13  1  0.451100  0.526400  0.393500  1
  C  C14  1  0.423700  0.605400  0.484800  1
  C  C15  1  0.939300  0.562000  0.287200  1
  C  C16  1  1.084800  0.646700  0.348800  1
  C  C17  1  0.353100  0.491600  0.388900  1
  C  C18  1  0.327500  0.570900  0.479700  1
  C  C19  1  1.006400  0.539800  0.246400  1
  C  C20  1  1.145000  0.623000  0.309700  1
  C  C21  1  0.290900  0.512200  0.430300  1
  C  C22  1  0.261700  0.591400  0.521600  1
  C  C23  1  1.105700  0.568900  0.257900  1
  C  C24  1  0.191500  0.476800  0.426300  1
  C  C25  1  0.168200  0.556400  0.515900  1
  C  C26  1  0.132100  0.498500  0.467200  1
  C  C27  1  0.247200  0.129800  0.084000  1
  C  C28  1  0.349600  0.097500  0.092400  1
  C  C29  1  0.184500  0.108200  0.126700  1
  C  C30  1  0.387700  0.039800  0.143300  1
  C  C31  1  0.413300  0.118400  0.051500  1
  C  C32  1  0.224000  0.051900  0.178900  1
  C  C33  1  0.082200  0.138900  0.119200  1
  C  C34  1  0.324100  0.017900  0.185800  1
  C  C35  1  0.485400  0.006200  0.148100  1
  C  C36  1  0.512300  0.085300  0.057000  1
  C  C37  1  0.160100  0.031400  0.220300  1
  C  C38  1  0.020400  0.117600  0.160000  1
  C  C39  1  0.548900  0.026400  0.106500  1
  C  C40  1  0.576300  0.105400  0.015200  1
  C  C41  1  0.060700  0.062000  0.212800  1
  C  C42  1  -0.084800  0.146700  0.151200  1
  C  C43  1  0.646900  -0.008400  0.111100  1
  C  C44  1  0.672500  0.070900  0.020300  1
  C  C45  1  -0.006400  0.039800  0.253600  1
  C  C46  1  -0.145000  0.123000  0.190300  1
  C  C47  1  0.709100  0.012200  0.069700  1
  C  C48  1  0.738300  0.091400  -0.021600  1
  C  C49  1  -0.105700  0.068900  0.242100  1
  C  C50  1  0.808500  -0.023200  0.073700  1
  C  C51  1  0.831800  0.056400  -0.015900  1
  C  C52  1  0.867900  -0.001500  0.032800  1
  C  C53  1  0.247200  0.370200  0.584000  1
  C  C54  1  0.349600  0.402500  0.592400  1
  C  C55  1  0.184500  0.391800  0.626700  1
  C  C56  1  0.387700  0.460200  0.643300  1
  C  C57  1  0.413300  0.381600  0.551500  1
  C  C58  1  0.224000  0.448100  0.678900  1
  C  C59  1  0.082200  0.361100  0.619200  1
  C  C60  1  0.324100  0.482100  0.685800  1
  C  C61  1  0.485400  0.493800  0.648100  1
  C  C62  1  0.512300  0.414700  0.557000  1
  C  C63  1  0.160100  0.468600  0.720300  1
  C  C64  1  0.020400  0.382400  0.660000  1
  C  C65  1  0.548900  0.473600  0.606500  1
  C  C66  1  0.576300  0.394600  0.515200  1
  C  C67  1  0.060700  0.438000  0.712800  1
  C  C68  1  -0.084800  0.353300  0.651200  1
  C  C69  1  0.646900  0.508400  0.611100  1
  C  C70  1  0.672500  0.429100  0.520300  1
  C  C71  1  -0.006400  0.460200  0.753600  1
  C  C72  1  -0.145000  0.377000  0.690300  1
  C  C73  1  0.709100  0.487800  0.569700  1
  C  C74  1  0.738300  0.408600  0.478400  1
  C  C75  1  -0.105700  0.431100  0.742100  1
  C  C76  1  0.808500  0.523200  0.573700  1
  C  C77  1  0.831800  0.443600  0.484100  1
  C  C78  1  0.867900  0.501500  0.532800  1
  C  C79  1  0.752800  0.870200  0.916000  1
  C  C80  1  0.650400  0.902500  0.907600  1
  C  C81  1  0.815500  0.891800  0.873300  1
  C  C82  1  0.612300  0.960200  0.856700  1
  C  C83  1  0.586700  0.881600  0.948500  1
  C  C84  1  0.776000  0.948100  0.821100  1
  C  C85  1  0.917800  0.861100  0.880800  1
  C  C86  1  0.675900  0.982100  0.814200  1
  C  C87  1  0.514600  0.993800  0.851900  1
  C  C88  1  0.487700  0.914700  0.943000  1
  C  C89  1  0.839900  0.968600  0.779700  1
  C  C90  1  0.979600  0.882400  0.840000  1
  C  C91  1  0.451100  0.973600  0.893500  1
  C  C92  1  0.423700  0.894600  0.984800  1
  C  C93  1  0.939300  0.938000  0.787200  1
  C  C94  1  1.084800  0.853300  0.848800  1
  C  C95  1  0.353100  1.008400  0.888900  1
  C  C96  1  0.327500  0.929100  0.979700  1
  C  C97  1  1.006400  0.960200  0.746400  1
  C  C98  1  1.145000  0.877000  0.809700  1
  C  C99  1  0.290900  0.987800  0.930300  1
  C  C100  1  0.261700  0.908600  1.021600  1
  C  C101  1  1.105700  0.931100  0.757900  1
  C  C102  1  0.191500  1.023200  0.926300  1
  C  C103  1  0.168200  0.943600  1.015900  1
  C  C104  1  0.132100  1.001500  0.967200  1
  H  H105  1  0.783906  0.672033  0.456039  1
  H  H106  1  0.615669  0.662715  0.486578  1
  H  H107  1  0.950884  0.681378  0.420256  1
  H  H108  1  0.647301  0.474101  0.275494  1
  H  H109  1  0.486441  0.461902  0.313695  1
  H  H110  1  0.810607  0.489234  0.239350  1
  H  H111  1  0.449935  0.649885  0.523011  1
  H  H112  1  1.121108  0.689301  0.387447  1
  H  H113  1  0.324051  0.446648  0.351575  1
  H  H114  1  0.980662  0.498796  0.204596  1
  H  H115  1  1.225282  0.647528  0.319947  1
  H  H116  1  0.283991  0.636062  0.559905  1
  H  H117  1  1.153813  0.548853  0.225584  1
  H  H118  1  0.159506  0.431129  0.390387  1
  H  H119  1  0.122336  0.574698  0.550258  1
  H  H120  1  0.055890  0.469612  0.460976  1
  H  H121  1  0.216094  0.172033  0.043961  1
  H  H122  1  0.384331  0.162715  0.013422  1
  H  H123  1  0.049116  0.181378  0.079744  1
  H  H124  1  0.352699  -0.025899  0.224506  1
  H  H125  1  0.513559  -0.038098  0.186305  1
  H  H126  1  0.189393  -0.010766  0.260650  1
  H  H127  1  0.550065  0.149885  -0.023011  1
  H  H128  1  -0.121108  0.189301  0.112553  1
  H  H129  1  0.675949  -0.053352  0.148425  1
  H  H130  1  0.019338  -0.001204  0.295404  1
  H  H131  1  -0.225282  0.147528  0.180053  1
  H  H132  1  0.716009  0.136062  -0.059905  1
  H  H133  1  -0.153813  0.048853  0.274416  1
  H  H134  1  0.840494  -0.068871  0.109613  1
  H  H135  1  0.877664  0.074698  -0.050258  1
  H  H136  1  0.944110  -0.030388  0.039024  1
  H  H137  1  0.216094  0.327967  0.543961  1
  H  H138  1  0.384331  0.337285  0.513422  1
  H  H139  1  0.049116  0.318622  0.579744  1
  H  H140  1  0.352699  0.525899  0.724506  1
  H  H141  1  0.513559  0.538098  0.686305  1
  H  H142  1  0.189393  0.510766  0.760650  1
  H  H143  1  0.550065  0.350115  0.476989  1
  H  H144  1  -0.121108  0.310699  0.612553  1
  H  H145  1  0.675949  0.553352  0.648425  1
  H  H146  1  0.019338  0.501204  0.795404  1
  H  H147  1  -0.225282  0.352472  0.680053  1
  H  H148  1  0.716009  0.363938  0.440095  1
  H  H149  1  -0.153813  0.451147  0.774416  1
  H  H150  1  0.840494  0.568871  0.609613  1
  H  H151  1  0.877664  0.425302  0.449742  1
  H  H152  1  0.944110  0.530388  0.539024  1
  H  H153  1  0.783906  0.827967  0.956039  1
  H  H154  1  0.615669  0.837285  0.986578  1
  H  H155  1  0.950884  0.818622  0.920256  1
  H  H156  1  0.647301  1.025899  0.775494  1
  H  H157  1  0.486441  1.038098  0.813695  1
  H  H158  1  0.810607  1.010766  0.739350  1
  H  H159  1  0.449935  0.850115  1.023011  1
  H  H160  1  1.121108  0.810699  0.887447  1
  H  H161  1  0.324051  1.053352  0.851575  1
  H  H162  1  0.980662  1.001204  0.704596  1
  H  H163  1  1.225282  0.852472  0.819947  1
  H  H164  1  0.283991  0.863938  1.059905  1
  H  H165  1  1.153813  0.951147  0.725584  1
  H  H166  1  0.159506  1.068871  0.890387  1
  H  H167  1  0.122336  0.925302  1.050258  1
  H  H168  1  0.055890  1.030388  0.960976  1
