# generated using pymatgen
data_H5C9S
_symmetry_space_group_name_H-M   'P 1'
_cell_length_a   6.30150000
_cell_length_b   17.83880000
_cell_length_c   13.77390000
_cell_angle_alpha   90.00000000
_cell_angle_beta   91.80300000
_cell_angle_gamma   90.00000000
_symmetry_Int_Tables_number   1
_chemical_formula_structural   H5C9S
_chemical_formula_sum   'H20 C36 S4'
_cell_volume   1547.57404165
_cell_formula_units_Z   4
loop_
 _symmetry_equiv_pos_site_id
 _symmetry_equiv_pos_as_xyz
  1  'x, y, z'
loop_
 _atom_site_type_symbol
 _atom_site_label
 _atom_site_symmetry_multiplicity
 _atom_site_fract_x
 _atom_site_fract_y
 _atom_site_fract_z
 _atom_site_occupancy
  C  C1  1  0.933600  0.801200  0.671600  1
  C  C2  1  0.994000  0.728000  0.644400  1
  C  C3  1  0.752400  0.834200  0.630900  1
  C  C4  1  1.179000  0.709700  0.691500  1
  C  C5  1  0.873200  0.686600  0.578600  1
  C  C6  1  1.257000  0.759300  0.758500  1
  C  C7  1  0.627500  0.792700  0.563800  1
  C  C8  1  0.685600  0.716900  0.538200  1
  C  C9  1  0.436000  0.823700  0.521700  1
  C  C10  1  0.551600  0.675600  0.473700  1
  C  C11  1  0.305800  0.781900  0.456000  1
  C  C12  1  0.368400  0.706400  0.431200  1
  C  C13  1  0.115000  0.812200  0.414700  1
  C  C14  1  0.235600  0.666667  0.362900  1
  C  C15  1  -0.006500  0.772700  0.349400  1
  C  C16  1  0.058100  0.697500  0.322600  1
  C  C17  1  -0.105000  0.663100  0.251000  1
  C  C18  1  -0.259700  0.711900  0.228600  1
  C  C19  1  0.933600  0.198800  1.171600  1
  C  C20  1  0.994000  0.272000  1.144400  1
  C  C21  1  0.752400  0.165800  1.130900  1
  C  C22  1  1.179000  0.290300  1.191500  1
  C  C23  1  0.873200  0.313400  1.078600  1
  C  C24  1  1.257000  0.240700  1.258500  1
  C  C25  1  0.627500  0.207300  1.063800  1
  C  C26  1  0.685600  0.283100  1.038200  1
  C  C27  1  0.436000  0.176300  1.021700  1
  C  C28  1  0.551600  0.324400  0.973700  1
  C  C29  1  0.305800  0.218100  0.956000  1
  C  C30  1  0.368400  0.293600  0.931200  1
  C  C31  1  0.115000  0.187800  0.914700  1
  C  C32  1  0.235600  0.333333  0.862900  1
  C  C33  1  -0.006500  0.227300  0.849400  1
  C  C34  1  0.058100  0.302500  0.822600  1
  C  C35  1  -0.105000  0.336900  0.751000  1
  C  C36  1  -0.259700  0.288100  0.728600  1
  H  H37  1  0.708960  0.891683  0.651270  1
  H  H38  1  1.262050  0.656998  0.676054  1
  H  H39  1  0.925890  0.630045  0.558565  1
  H  H40  1  1.401621  0.741639  0.799070  1
  H  H41  1  0.387704  0.881057  0.540294  1
  H  H42  1  0.591410  0.617260  0.455899  1
  H  H43  1  0.059097  0.868506  0.434060  1
  H  H44  1  0.272052  0.609121  0.340067  1
  H  H45  1  -0.110663  0.607013  0.217833  1
  H  H46  1  -0.372191  0.686960  0.175129  1
  H  H47  1  0.708960  0.108317  1.151270  1
  H  H48  1  1.262050  0.343002  1.176054  1
  H  H49  1  0.925890  0.369955  1.058565  1
  H  H50  1  1.401621  0.258361  1.299070  1
  H  H51  1  0.387704  0.118943  1.040294  1
  H  H52  1  0.591410  0.382740  0.955899  1
  H  H53  1  0.059097  0.131494  0.934060  1
  H  H54  1  0.272052  0.390879  0.840067  1
  H  H55  1  -0.110663  0.392987  0.717833  1
  H  H56  1  -0.372191  0.313040  0.675129  1
  S  S57  1  1.100800  0.837500  0.759800  1
  S  S58  1  -0.242100  0.798900  0.288100  1
  S  S59  1  1.100800  0.162500  1.259800  1
  S  S60  1  -0.242100  0.201100  0.788100  1
