# generated using pymatgen
data_H7C11
_symmetry_space_group_name_H-M   'P 1'
_cell_length_a   7.62040000
_cell_length_b   8.05870000
_cell_length_c   17.00310000
_cell_angle_alpha   77.13800000
_cell_angle_beta   89.25000000
_cell_angle_gamma   85.76100000
_symmetry_Int_Tables_number   1
_chemical_formula_structural   H7C11
_chemical_formula_sum   'H14 C22'
_cell_volume   1015.17912474
_cell_formula_units_Z   2
loop_
 _symmetry_equiv_pos_site_id
 _symmetry_equiv_pos_as_xyz
  1  'x, y, z'
loop_
 _atom_site_type_symbol
 _atom_site_label
 _atom_site_symmetry_multiplicity
 _atom_site_fract_x
 _atom_site_fract_y
 _atom_site_fract_z
 _atom_site_occupancy
  C  C1  1  0.562700  0.557900  0.419680  1
  C  C2  1  0.604400  0.386900  0.461690  1
  C  C3  1  0.457800  0.671100  0.457240  1
  C  C4  1  0.542200  0.328900  0.542760  1
  C  C5  1  0.704100  0.271100  0.424800  1
  C  C6  1  0.395600  0.613100  0.538310  1
  C  C7  1  0.415400  0.841300  0.416420  1
  C  C8  1  0.437300  0.442100  0.580320  1
  C  C9  1  0.584600  0.158700  0.583580  1
  C  C10  1  0.741900  0.102900  0.464990  1
  C  C11  1  0.295900  0.728900  0.575200  1
  C  C12  1  0.318000  0.953800  0.453620  1
  C  C13  1  0.682000  0.046200  0.546380  1
  C  C14  1  0.840500  -0.017800  0.428620  1
  C  C15  1  0.258100  0.897100  0.535010  1
  C  C16  1  0.276800  1.127900  0.413990  1
  C  C17  1  0.723200  -0.127900  0.586010  1
  C  C18  1  0.876700  -0.180800  0.469430  1
  C  C19  1  0.159500  1.017800  0.571380  1
  C  C20  1  0.184100  1.236000  0.451080  1
  C  C21  1  0.815900  -0.236000  0.548920  1
  C  C22  1  0.123300  1.180800  0.530570  1
  H  H23  1  0.611676  0.602691  0.358018  1
  H  H24  1  0.753689  0.313078  0.363050  1
  H  H25  1  0.459392  0.887451  0.354016  1
  H  H26  1  0.388324  0.397309  0.641982  1
  H  H27  1  0.540608  0.112549  0.645984  1
  H  H28  1  0.246311  0.686922  0.636950  1
  H  H29  1  0.890656  0.016200  0.366585  1
  H  H30  1  0.318482  1.181318  0.351896  1
  H  H31  1  0.681518  -0.181318  0.648104  1
  H  H32  1  0.954512  -0.267276  0.438401  1
  H  H33  1  0.109344  0.983800  0.633415  1
  H  H34  1  0.158270  1.368225  0.416748  1
  H  H35  1  0.841730  -0.368225  0.583252  1
  H  H36  1  0.045488  1.267276  0.561599  1
