# generated using pymatgen
data_H5C9S
_symmetry_space_group_name_H-M   'P 1'
_cell_length_a   17.22710000
_cell_length_b   6.42030000
_cell_length_c   15.57620000
_cell_angle_alpha   90.00000000
_cell_angle_beta   115.80400000
_cell_angle_gamma   90.00000000
_symmetry_Int_Tables_number   1
_chemical_formula_structural   H5C9S
_chemical_formula_sum   'H20 C36 S4'
_cell_volume   1550.99593021
_cell_formula_units_Z   4
loop_
 _symmetry_equiv_pos_site_id
 _symmetry_equiv_pos_as_xyz
  1  'x, y, z'
loop_
 _atom_site_type_symbol
 _atom_site_label
 _atom_site_symmetry_multiplicity
 _atom_site_fract_x
 _atom_site_fract_y
 _atom_site_fract_z
 _atom_site_occupancy
  C  C1  1  0.578020  0.421400  0.561670  1
  C  C2  1  0.502500  0.313200  0.550560  1
  C  C3  1  0.577760  0.603700  0.512830  1
  C  C4  1  0.522160  0.126700  0.608920  1
  C  C5  1  0.422240  0.396300  0.487170  1
  C  C6  1  0.611770  0.103600  0.664250  1
  C  C7  1  0.497500  0.686800  0.449440  1
  C  C8  1  0.466760  -0.024200  0.616240  1
  C  C9  1  0.421980  0.578600  0.438330  1
  C  C10  1  0.645600  -0.062600  0.726940  1
  C  C11  1  0.477840  0.873300  0.391080  1
  C  C12  1  0.501100  -0.189200  0.679370  1
  C  C13  1  0.589460  -0.208100  0.734160  1
  C  C14  1  0.388230  0.896400  0.335750  1
  C  C15  1  0.533240  1.024200  0.383760  1
  C  C16  1  0.354400  1.062600  0.273060  1
  C  C17  1  0.498900  1.189200  0.320630  1
  C  C18  1  0.410540  1.208100  0.265840  1
  C  C19  1  0.421980  -0.078600  -0.061670  1
  C  C20  1  0.497500  -0.186800  -0.050560  1
  C  C21  1  0.422240  0.103700  -0.012830  1
  C  C22  1  0.477840  -0.373300  -0.108920  1
  C  C23  1  0.577760  -0.103700  0.012830  1
  C  C24  1  0.388230  -0.396400  -0.164250  1
  C  C25  1  0.502500  0.186800  0.050560  1
  C  C26  1  0.533240  -0.524200  -0.116240  1
  C  C27  1  0.578020  0.078600  0.061670  1
  C  C28  1  0.354400  -0.562600  -0.226940  1
  C  C29  1  0.522160  0.373300  0.108920  1
  C  C30  1  0.498900  -0.689200  -0.179370  1
  C  C31  1  0.410540  -0.708100  -0.234160  1
  C  C32  1  0.611770  0.396400  0.164250  1
  C  C33  1  0.466760  0.524200  0.116240  1
  C  C34  1  0.645600  0.562600  0.226940  1
  C  C35  1  0.501100  0.689200  0.179370  1
  C  C36  1  0.589460  0.708100  0.234160  1
  H  H37  1  0.638712  0.679281  0.523916  1
  H  H38  1  0.361288  0.320719  0.476084  1
  H  H39  1  0.396676  -0.013188  0.572654  1
  H  H40  1  0.715570  -0.078698  0.770079  1
  H  H41  1  0.457623  -0.306785  0.686082  1
  H  H42  1  0.615252  -0.339699  0.783798  1
  H  H43  1  0.603324  1.013188  0.427346  1
  H  H44  1  0.284430  1.078698  0.229921  1
  H  H45  1  0.542377  1.306785  0.313918  1
  H  H46  1  0.384748  1.339699  0.216202  1
  H  H47  1  0.361288  0.179281  -0.023916  1
  H  H48  1  0.638712  -0.179281  0.023916  1
  H  H49  1  0.603324  -0.513188  -0.072654  1
  H  H50  1  0.284430  -0.578698  -0.270079  1
  H  H51  1  0.542377  -0.806785  -0.186082  1
  H  H52  1  0.384748  -0.839699  -0.283798  1
  H  H53  1  0.396676  0.513188  0.072654  1
  H  H54  1  0.715570  0.578698  0.270079  1
  H  H55  1  0.457623  0.806785  0.186082  1
  H  H56  1  0.615252  0.839699  0.283798  1
  S  S57  1  0.671910  0.300290  0.644040  1
  S  S58  1  0.328090  0.699710  0.355960  1
  S  S59  1  0.328090  -0.199710  -0.144040  1
  S  S60  1  0.671910  0.199710  0.144040  1
