# generated using pymatgen
data_H7C11
_symmetry_space_group_name_H-M   'P 1'
_cell_length_a   7.72830000
_cell_length_b   7.76280000
_cell_length_c   16.88050000
_cell_angle_alpha   78.07700000
_cell_angle_beta   89.22800000
_cell_angle_gamma   81.78800000
_symmetry_Int_Tables_number   1
_chemical_formula_structural   H7C11
_chemical_formula_sum   'H14 C22'
_cell_volume   980.57331195
_cell_formula_units_Z   2
loop_
 _symmetry_equiv_pos_site_id
 _symmetry_equiv_pos_as_xyz
  1  'x, y, z'
loop_
 _atom_site_type_symbol
 _atom_site_label
 _atom_site_symmetry_multiplicity
 _atom_site_fract_x
 _atom_site_fract_y
 _atom_site_fract_z
 _atom_site_occupancy
  C  C1  1  0.437800  0.446500  0.579910  1
  C  C2  1  0.545700  0.321800  0.543110  1
  C  C3  1  0.392700  0.625900  0.537420  1
  C  C4  1  0.607300  0.374100  0.462580  1
  C  C5  1  0.590700  0.142700  0.583950  1
  C  C6  1  0.454300  0.678200  0.456890  1
  C  C7  1  0.290200  0.752900  0.573160  1
  C  C8  1  0.562200  0.553500  0.420090  1
  C  C9  1  0.709800  0.247100  0.426840  1
  C  C10  1  0.692700  0.019400  0.548160  1
  C  C11  1  0.409300  0.857300  0.416050  1
  C  C12  1  0.248300  0.927800  0.532310  1
  C  C13  1  0.751700  0.072200  0.467690  1
  C  C14  1  0.737000  -0.162400  0.589400  1
  C  C15  1  0.307300  0.980600  0.451840  1
  C  C16  1  0.144200  1.060300  0.568080  1
  C  C17  1  0.855800  -0.060300  0.431920  1
  C  C18  1  0.835500  -0.282100  0.552500  1
  C  C19  1  0.263000  1.162400  0.410600  1
  C  C20  1  0.106200  1.230000  0.526400  1
  C  C21  1  0.893800  -0.230000  0.473600  1
  C  C22  1  0.164500  1.282100  0.447500  1
  H  H23  1  0.389121  0.404100  0.641371  1
  H  H24  1  0.544758  0.097725  0.645714  1
  H  H25  1  0.241374  0.714307  0.634869  1
  H  H26  1  0.610879  0.595900  0.358629  1
  H  H27  1  0.758626  0.285693  0.365131  1
  H  H28  1  0.455242  0.902275  0.354286  1
  H  H29  1  0.694060  -0.211599  0.651307  1
  H  H30  1  0.091750  1.030782  0.629536  1
  H  H31  1  0.908250  -0.030782  0.370464  1
  H  H32  1  0.867796  -0.420123  0.586243  1
  H  H33  1  0.305940  1.211599  0.348693  1
  H  H34  1  0.027514  1.326090  0.556812  1
  H  H35  1  0.972486  -0.326090  0.443188  1
  H  H36  1  0.132204  1.420123  0.413757  1
