# generated using pymatgen
data_H5C9S
_symmetry_space_group_name_H-M   'P 1'
_cell_length_a   8.61940000
_cell_length_b   9.77750000
_cell_length_c   16.19570000
_cell_angle_alpha   99.81710000
_cell_angle_beta   91.94410000
_cell_angle_gamma   109.82810000
_symmetry_Int_Tables_number   1
_chemical_formula_structural   H5C9S
_chemical_formula_sum   'H10 C18 S2'
_cell_volume   1258.97665123
_cell_formula_units_Z   2
loop_
 _symmetry_equiv_pos_site_id
 _symmetry_equiv_pos_as_xyz
  1  'x, y, z'
loop_
 _atom_site_type_symbol
 _atom_site_label
 _atom_site_symmetry_multiplicity
 _atom_site_fract_x
 _atom_site_fract_y
 _atom_site_fract_z
 _atom_site_occupancy
  C  C1  1  0.957000  0.683300  0.537290  1
  C  C2  1  0.920000  0.749800  0.470750  1
  C  C3  1  0.834100  0.579000  0.567480  1
  C  C4  1  1.064300  0.865900  0.452400  1
  C  C5  1  0.760300  0.711200  0.436480  1
  C  C6  1  1.202700  0.883500  0.503200  1
  C  C7  1  0.667100  0.537300  0.533480  1
  C  C8  1  0.629800  0.604900  0.466690  1
  C  C9  1  0.537700  0.433400  0.565280  1
  C  C10  1  0.462300  0.566600  0.434720  1
  C  C11  1  0.370200  0.395100  0.533310  1
  C  C12  1  0.332900  0.462700  0.466520  1
  C  C13  1  0.239700  0.288800  0.563520  1
  C  C14  1  0.165900  0.421000  0.432520  1
  C  C15  1  0.080000  0.250200  0.529250  1
  C  C16  1  0.043000  0.316700  0.462710  1
  C  C17  1  -0.064300  0.134100  0.547600  1
  C  C18  1  -0.202700  0.116500  0.496800  1
  H  H19  1  0.868857  0.529662  0.618071  1
  H  H20  1  1.068386  0.934116  0.404510  1
  H  H21  1  0.737137  0.764902  0.385332  1
  H  H22  1  1.313851  0.970941  0.490403  1
  H  H23  1  0.567854  0.381481  0.615751  1
  H  H24  1  0.432146  0.618519  0.384249  1
  H  H25  1  0.262863  0.235098  0.614668  1
  H  H26  1  0.131143  0.470338  0.381929  1
  H  H27  1  -0.068386  0.065884  0.595490  1
  H  H28  1  -0.313851  0.029059  0.509597  1
  S  S29  1  1.165300  0.762800  0.574240  1
  S  S30  1  -0.165300  0.237200  0.425760  1
