# generated using pymatgen
data_H6C11S
_symmetry_space_group_name_H-M   'P 1'
_cell_length_a   12.18610000
_cell_length_b   13.17440000
_cell_length_c   17.60420000
_cell_angle_alpha   100.07860000
_cell_angle_beta   110.04230000
_cell_angle_gamma   99.20750000
_symmetry_Int_Tables_number   1
_chemical_formula_structural   H6C11S
_chemical_formula_sum   'H24 C44 S4'
_cell_volume   2539.11627235
_cell_formula_units_Z   4
loop_
 _symmetry_equiv_pos_site_id
 _symmetry_equiv_pos_as_xyz
  1  'x, y, z'
loop_
 _atom_site_type_symbol
 _atom_site_label
 _atom_site_symmetry_multiplicity
 _atom_site_fract_x
 _atom_site_fract_y
 _atom_site_fract_z
 _atom_site_occupancy
  C  C1  1  0.108100  0.071600  0.105020  1
  C  C2  1  0.038800  0.149100  0.109360  1
  C  C3  1  0.165900  0.077600  0.045500  1
  C  C4  1  0.111900  -0.001200  0.150730  1
  C  C5  1  -0.025600  0.150400  0.160000  1
  C  C6  1  0.146400  0.161000  0.011800  1
  C  C7  1  0.046000  -0.003000  0.203430  1
  C  C8  1  -0.024200  0.074700  0.208260  1
  C  C9  1  0.048600  -0.078600  0.250790  1
  C  C10  1  -0.089800  0.073600  0.260790  1
  C  C11  1  -0.015100  -0.078700  0.305220  1
  C  C12  1  -0.083600  0.000200  0.311080  1
  C  C13  1  -0.012500  -0.152300  0.354000  1
  C  C14  1  -0.142400  0.001800  0.367080  1
  C  C15  1  -0.072000  -0.150800  0.408920  1
  C  C16  1  -0.137300  -0.069500  0.416780  1
  C  C17  1  -0.068900  -0.224500  0.459330  1
  C  C18  1  -0.193900  -0.065700  0.475720  1
  C  C19  1  -0.124100  -0.220200  0.513480  1
  C  C20  1  -0.187600  -0.139200  0.522890  1
  C  C21  1  -0.237300  -0.142500  0.586900  1
  C  C22  1  -0.214100  -0.224800  0.621300  1
  C  C23  1  -0.108100  -0.071600  0.894980  1
  C  C24  1  -0.038800  -0.149100  0.890640  1
  C  C25  1  -0.165900  -0.077600  0.954500  1
  C  C26  1  -0.111900  0.001200  0.849270  1
  C  C27  1  0.025600  -0.150400  0.840000  1
  C  C28  1  -0.146400  -0.161000  0.988200  1
  C  C29  1  -0.046000  0.003000  0.796570  1
  C  C30  1  0.024200  -0.074700  0.791740  1
  C  C31  1  -0.048600  0.078600  0.749210  1
  C  C32  1  0.089800  -0.073600  0.739210  1
  C  C33  1  0.015100  0.078700  0.694780  1
  C  C34  1  0.083600  -0.000200  0.688920  1
  C  C35  1  0.012500  0.152300  0.646000  1
  C  C36  1  0.142400  -0.001800  0.632920  1
  C  C37  1  0.072000  0.150800  0.591080  1
  C  C38  1  0.137300  0.069500  0.583220  1
  C  C39  1  0.068900  0.224500  0.540670  1
  C  C40  1  0.193900  0.065700  0.524280  1
  C  C41  1  0.124100  0.220200  0.486520  1
  C  C42  1  0.187600  0.139200  0.477110  1
  C  C43  1  0.237300  0.142500  0.413100  1
  C  C44  1  0.214100  0.224800  0.378700  1
  H  H45  1  0.218916  0.024516  0.027792  1
  H  H46  1  0.167564  -0.057903  0.145148  1
  H  H47  1  -0.077536  0.211176  0.161879  1
  H  H48  1  0.194696  0.169833  -0.030109  1
  H  H49  1  0.100955  -0.138220  0.245207  1
  H  H50  1  -0.146336  0.130529  0.262554  1
  H  H51  1  0.038114  -0.213509  0.348996  1
  H  H52  1  -0.194758  0.061532  0.372242  1
  H  H53  1  -0.021194  -0.288327  0.456270  1
  H  H54  1  -0.243418  -0.004846  0.484986  1
  H  H55  1  -0.287345  -0.088267  0.607227  1
  H  H56  1  -0.254102  -0.229951  0.668234  1
  H  H57  1  -0.218916  -0.024516  0.972208  1
  H  H58  1  -0.167564  0.057903  0.854852  1
  H  H59  1  0.077536  -0.211176  0.838121  1
  H  H60  1  -0.194696  -0.169833  1.030109  1
  H  H61  1  -0.100955  0.138220  0.754793  1
  H  H62  1  0.146336  -0.130529  0.737446  1
  H  H63  1  -0.038114  0.213509  0.651004  1
  H  H64  1  0.194758  -0.061532  0.627758  1
  H  H65  1  0.021194  0.288327  0.543730  1
  H  H66  1  0.243418  0.004846  0.515014  1
  H  H67  1  0.287345  0.088267  0.392773  1
  H  H68  1  0.254102  0.229951  0.331766  1
  S  S69  1  0.050900  0.230500  0.044050  1
  S  S70  1  -0.128000  -0.299000  0.581900  1
  S  S71  1  -0.050900  -0.230500  0.955950  1
  S  S72  1  0.128000  0.299000  0.418100  1
