# generated using pymatgen
data_H4C8SN
_symmetry_space_group_name_H-M   'P 1'
_cell_length_a   13.44970000
_cell_length_b   18.66730000
_cell_length_c   14.82150000
_cell_angle_alpha   90.00000000
_cell_angle_beta   99.34430000
_cell_angle_gamma   90.00000000
_symmetry_Int_Tables_number   1
_chemical_formula_structural   H4C8SN
_chemical_formula_sum   'H32 C64 S8 N8'
_cell_volume   3671.84891582
_cell_formula_units_Z   8
loop_
 _symmetry_equiv_pos_site_id
 _symmetry_equiv_pos_as_xyz
  1  'x, y, z'
loop_
 _atom_site_type_symbol
 _atom_site_label
 _atom_site_symmetry_multiplicity
 _atom_site_fract_x
 _atom_site_fract_y
 _atom_site_fract_z
 _atom_site_occupancy
  C  C1  1  0.504540  0.515340  0.306970  1
  C  C2  1  0.481800  0.467700  0.376200  1
  C  C3  1  0.601850  0.524300  0.292170  1
  C  C4  1  0.556820  0.430290  0.429280  1
  C  C5  1  0.326700  0.503230  0.326600  1
  C  C6  1  0.680770  0.485800  0.345700  1
  C  C7  1  0.657870  0.437860  0.415780  1
  C  C8  1  0.781190  0.492480  0.331320  1
  C  C9  1  0.736650  0.397760  0.468250  1
  C  C10  1  0.860570  0.454930  0.386620  1
  C  C11  1  0.838020  0.407020  0.456710  1
  C  C12  1  0.962330  0.463530  0.374110  1
  C  C13  1  0.917820  0.370490  0.512580  1
  C  C14  1  1.036770  0.427510  0.428430  1
  C  C15  1  1.014810  0.381060  0.499390  1
  C  C16  1  1.193500  0.396750  0.484400  1
  C  C17  1  0.495460  0.015340  0.193030  1
  C  C18  1  0.518200  -0.032300  0.123800  1
  C  C19  1  0.398150  0.024300  0.207830  1
  C  C20  1  0.443180  -0.069710  0.070720  1
  C  C21  1  0.673300  0.003230  0.173400  1
  C  C22  1  0.319230  -0.014200  0.154300  1
  C  C23  1  0.342130  -0.062140  0.084220  1
  C  C24  1  0.218810  -0.007520  0.168680  1
  C  C25  1  0.263350  -0.102240  0.031750  1
  C  C26  1  0.139430  -0.045070  0.113380  1
  C  C27  1  0.161980  -0.092980  0.043290  1
  C  C28  1  0.037670  -0.036470  0.125890  1
  C  C29  1  0.082180  -0.129510  -0.012580  1
  C  C30  1  -0.036770  -0.072490  0.071570  1
  C  C31  1  -0.014810  -0.118940  0.000610  1
  C  C32  1  -0.193500  -0.103250  0.015600  1
  C  C33  1  1.495460  0.484660  0.693030  1
  C  C34  1  1.518200  0.532300  0.623800  1
  C  C35  1  1.398150  0.475700  0.707830  1
  C  C36  1  1.443180  0.569710  0.570720  1
  C  C37  1  1.673300  0.496770  0.673400  1
  C  C38  1  1.319230  0.514200  0.654300  1
  C  C39  1  1.342130  0.562140  0.584220  1
  C  C40  1  1.218810  0.507520  0.668680  1
  C  C41  1  1.263350  0.602240  0.531750  1
  C  C42  1  1.139430  0.545070  0.613380  1
  C  C43  1  1.161980  0.592980  0.543290  1
  C  C44  1  1.037670  0.536470  0.625890  1
  C  C45  1  1.082180  0.629510  0.487420  1
  C  C46  1  0.963230  0.572490  0.571570  1
  C  C47  1  0.985190  0.618940  0.500610  1
  C  C48  1  0.806500  0.603250  0.515600  1
  C  C49  1  0.504540  -0.015340  0.806970  1
  C  C50  1  0.481800  0.032300  0.876200  1
  C  C51  1  0.601850  -0.024300  0.792170  1
  C  C52  1  0.556820  0.069710  0.929280  1
  C  C53  1  0.326700  -0.003230  0.826600  1
  C  C54  1  0.680770  0.014200  0.845700  1
  C  C55  1  0.657870  0.062140  0.915780  1
  C  C56  1  0.781190  0.007520  0.831320  1
  C  C57  1  0.736650  0.102240  0.968250  1
  C  C58  1  0.860570  0.045070  0.886620  1
  C  C59  1  0.838020  0.092980  0.956710  1
  C  C60  1  0.962330  0.036470  0.874110  1
  C  C61  1  0.917820  0.129510  1.012580  1
  C  C62  1  1.036770  0.072490  0.928430  1
  C  C63  1  1.014810  0.118940  0.999390  1
  C  C64  1  1.193500  0.103250  0.984400  1
  H  H65  1  0.616325  0.561656  0.238387  1
  H  H66  1  0.536121  0.394522  0.482224  1
  H  H67  1  0.246924  0.499369  0.334390  1
  H  H68  1  0.797878  0.527562  0.276051  1
  H  H69  1  0.718786  0.358727  0.518867  1
  H  H70  1  0.983972  0.498877  0.321168  1
  H  H71  1  0.904283  0.333398  0.566966  1
  H  H72  1  1.273561  0.403393  0.478904  1
  H  H73  1  0.383675  0.061656  0.261613  1
  H  H74  1  0.463879  -0.105478  0.017776  1
  H  H75  1  0.753076  -0.000631  0.165610  1
  H  H76  1  0.202122  0.027562  0.223949  1
  H  H77  1  0.281214  -0.141273  -0.018867  1
  H  H78  1  0.016028  -0.001123  0.178832  1
  H  H79  1  0.095717  -0.166602  -0.066966  1
  H  H80  1  -0.273561  -0.096607  0.021096  1
  H  H81  1  1.383675  0.438344  0.761613  1
  H  H82  1  1.463879  0.605478  0.517776  1
  H  H83  1  1.753076  0.500631  0.665610  1
  H  H84  1  1.202122  0.472438  0.723949  1
  H  H85  1  1.281214  0.641273  0.481133  1
  H  H86  1  1.016028  0.501123  0.678832  1
  H  H87  1  1.095717  0.666602  0.433034  1
  H  H88  1  0.726439  0.596607  0.521096  1
  H  H89  1  0.616325  -0.061656  0.738387  1
  H  H90  1  0.536121  0.105478  0.982224  1
  H  H91  1  0.246924  0.000631  0.834390  1
  H  H92  1  0.797878  -0.027562  0.776051  1
  H  H93  1  0.718786  0.141273  1.018867  1
  H  H94  1  0.983972  0.001123  0.821168  1
  H  H95  1  0.904283  0.166602  1.066966  1
  H  H96  1  1.273561  0.096607  0.978904  1
  N  N97  1  0.379500  0.460100  0.387400  1
  N  N98  1  1.138100  0.435500  0.419400  1
  N  N99  1  0.620500  -0.039900  0.112600  1
  N  N100  1  -0.138100  -0.064500  0.080600  1
  N  N101  1  1.620500  0.539900  0.612600  1
  N  N102  1  0.861900  0.564500  0.580600  1
  N  N103  1  0.379500  0.039900  0.887400  1
  N  N104  1  1.138100  0.064500  0.919400  1
  S  S105  1  0.390230  0.551990  0.254440  1
  S  S106  1  1.130910  0.348210  0.557500  1
  S  S107  1  0.609770  0.051990  0.245560  1
  S  S108  1  -0.130910  -0.151790  -0.057500  1
  S  S109  1  1.609770  0.448010  0.745560  1
  S  S110  1  0.869090  0.651790  0.442500  1
  S  S111  1  0.390230  -0.051990  0.754440  1
  S  S112  1  1.130910  0.151790  1.057500  1
