# generated using pymatgen
data_H7C11
_symmetry_space_group_name_H-M   'P 1'
_cell_length_a   8.66300000
_cell_length_b   12.70700000
_cell_length_c   19.49500000
_cell_angle_alpha   85.10400000
_cell_angle_beta   82.45600000
_cell_angle_gamma   84.72100000
_symmetry_Int_Tables_number   1
_chemical_formula_structural   H7C11
_chemical_formula_sum   'H28 C44'
_cell_volume   2112.58189997
_cell_formula_units_Z   4
loop_
 _symmetry_equiv_pos_site_id
 _symmetry_equiv_pos_as_xyz
  1  'x, y, z'
loop_
 _atom_site_type_symbol
 _atom_site_label
 _atom_site_symmetry_multiplicity
 _atom_site_fract_x
 _atom_site_fract_y
 _atom_site_fract_z
 _atom_site_occupancy
  C  C1  1  0.526500  0.933900  0.059900  1
  C  C2  1  0.393000  0.922600  0.026400  1
  C  C3  1  0.631700  1.009100  0.035400  1
  C  C4  1  0.368300  0.990900  -0.035400  1
  C  C5  1  0.284500  0.848100  0.050900  1
  C  C6  1  0.607000  1.077400  -0.026400  1
  C  C7  1  0.766200  1.022200  0.067800  1
  C  C8  1  0.473500  1.066100  -0.059900  1
  C  C9  1  0.233800  0.977800  -0.067800  1
  C  C10  1  0.154900  0.838500  0.018200  1
  C  C11  1  0.715500  1.151900  -0.050900  1
  C  C12  1  0.870100  1.093600  0.043800  1
  C  C13  1  0.129900  0.906400  -0.043800  1
  C  C14  1  0.040600  0.763100  0.044100  1
  C  C15  1  0.845100  1.161500  -0.018200  1
  C  C16  1  1.009000  1.103000  0.074500  1
  C  C17  1  -0.009000  0.897000  -0.074500  1
  C  C18  1  -0.085700  0.757600  0.010500  1
  C  C19  1  0.959400  1.236900  -0.044100  1
  C  C20  1  1.112000  1.174900  0.049200  1
  C  C21  1  -0.112000  0.825100  -0.049200  1
  C  C22  1  1.085700  1.242400  -0.010500  1
  C  C23  1  0.556700  0.437800  0.443900  1
  C  C24  1  0.653500  0.510300  0.464000  1
  C  C25  1  0.403500  0.427200  0.478800  1
  C  C26  1  0.596500  0.572800  0.521200  1
  C  C27  1  0.803700  0.523600  0.429300  1
  C  C28  1  0.346500  0.489700  0.536000  1
  C  C29  1  0.305000  0.357600  0.458000  1
  C  C30  1  0.443300  0.562200  0.556100  1
  C  C31  1  0.695000  0.642400  0.542000  1
  C  C32  1  0.899700  0.592400  0.449600  1
  C  C33  1  0.196300  0.476400  0.570700  1
  C  C34  1  0.155000  0.346900  0.491500  1
  C  C35  1  0.845000  0.653100  0.508500  1
  C  C36  1  1.053100  0.607300  0.416100  1
  C  C37  1  0.100300  0.407600  0.550400  1
  C  C38  1  0.052200  0.277400  0.470200  1
  C  C39  1  0.947800  0.722600  0.529800  1
  C  C40  1  1.144100  0.673900  0.437800  1
  C  C41  1  -0.053100  0.392700  0.583900  1
  C  C42  1  -0.090300  0.266800  0.504900  1
  C  C43  1  1.090300  0.733200  0.495100  1
  C  C44  1  -0.144100  0.326100  0.562200  1
  H  H45  1  0.549220  0.882600  0.106464  1
  H  H46  1  0.301677  0.795266  0.097465  1
  H  H47  1  0.791796  0.973434  0.114977  1
  H  H48  1  0.450780  1.117400  -0.106464  1
  H  H49  1  0.208204  1.026566  -0.114977  1
  H  H50  1  0.698323  1.204734  -0.097465  1
  H  H51  1  0.049971  0.708512  0.090566  1
  H  H52  1  1.038312  1.051969  0.120224  1
  H  H53  1  -0.038312  0.948031  -0.120224  1
  H  H54  1  -0.167206  0.698101  0.031773  1
  H  H55  1  0.950029  1.291488  -0.090566  1
  H  H56  1  1.214573  1.178390  0.076489  1
  H  H57  1  -0.214573  0.821610  -0.076489  1
  H  H58  1  1.167206  1.301899  -0.031773  1
  H  H59  1  0.601211  0.388949  0.400494  1
  H  H60  1  0.848096  0.478139  0.384249  1
  H  H61  1  0.346882  0.309700  0.413841  1
  H  H62  1  0.398789  0.611051  0.599506  1
  H  H63  1  0.653118  0.690300  0.586159  1
  H  H64  1  0.151904  0.521861  0.615751  1
  H  H65  1  1.104484  0.564727  0.370645  1
  H  H66  1  0.084188  0.229942  0.425079  1
  H  H67  1  0.915812  0.770058  0.574921  1
  H  H68  1  1.261344  0.679811  0.408975  1
  H  H69  1  -0.104484  0.435273  0.629355  1
  H  H70  1  -0.161942  0.210342  0.486646  1
  H  H71  1  1.161942  0.789658  0.513354  1
  H  H72  1  -0.261344  0.320189  0.591025  1
