# generated using pymatgen
data_H5C9S
_symmetry_space_group_name_H-M   'P 1'
_cell_length_a   7.27140000
_cell_length_b   10.49650000
_cell_length_c   12.16150000
_cell_angle_alpha   65.25800000
_cell_angle_beta   88.28700000
_cell_angle_gamma   76.89500000
_symmetry_Int_Tables_number   1
_chemical_formula_structural   H5C9S
_chemical_formula_sum   'H10 C18 S2'
_cell_volume   818.83332358
_cell_formula_units_Z   2
loop_
 _symmetry_equiv_pos_site_id
 _symmetry_equiv_pos_as_xyz
  1  'x, y, z'
loop_
 _atom_site_type_symbol
 _atom_site_label
 _atom_site_symmetry_multiplicity
 _atom_site_fract_x
 _atom_site_fract_y
 _atom_site_fract_z
 _atom_site_occupancy
  C  C1  1  0.928600  0.548130  0.621560  1
  C  C2  1  1.085000  0.595200  0.651600  1
  C  C3  1  0.942000  0.397340  0.693200  1
  C  C4  1  0.780800  0.630110  0.536350  1
  C  C5  1  1.204800  0.486100  0.741400  1
  C  C6  1  0.807400  0.332790  0.677350  1
  C  C7  1  0.639800  0.566430  0.517990  1
  C  C8  1  0.653000  0.415050  0.589890  1
  C  C9  1  0.486800  0.649030  0.428890  1
  C  C10  1  0.513200  0.350970  0.571110  1
  C  C11  1  0.347000  0.584950  0.410110  1
  C  C12  1  0.360200  0.433570  0.482010  1
  C  C13  1  0.192600  0.667210  0.322650  1
  C  C14  1  0.219200  0.369890  0.463650  1
  C  C15  1  0.058000  0.602660  0.306800  1
  C  C16  1  0.071400  0.451870  0.378440  1
  C  C17  1  -0.085000  0.404800  0.348400  1
  C  C18  1  -0.204800  0.513900  0.258600  1
  H  H19  1  1.110590  0.704392  0.609817  1
  H  H20  1  0.775414  0.745484  0.483400  1
  H  H21  1  1.322971  0.521487  0.765227  1
  H  H22  1  0.823048  0.216767  0.733943  1
  H  H23  1  0.476393  0.764670  0.373451  1
  H  H24  1  0.523607  0.235330  0.626549  1
  H  H25  1  0.176952  0.783233  0.266057  1
  H  H26  1  0.224586  0.254516  0.516600  1
  H  H27  1  -0.110590  0.295608  0.390183  1
  H  H28  1  -0.322971  0.478513  0.234773  1
  S  S29  1  1.140600  0.321900  0.794100  1
  S  S30  1  -0.140600  0.678100  0.205900  1
