# generated using pymatgen
data_H7C11
_symmetry_space_group_name_H-M   'P 1'
_cell_length_a   8.21020000
_cell_length_b   14.72260000
_cell_length_c   20.91850000
_cell_angle_alpha   82.40700000
_cell_angle_beta   85.75200000
_cell_angle_gamma   84.64300000
_symmetry_Int_Tables_number   1
_chemical_formula_structural   H7C11
_chemical_formula_sum   'H28 C44'
_cell_volume   2490.52847196
_cell_formula_units_Z   4
loop_
 _symmetry_equiv_pos_site_id
 _symmetry_equiv_pos_as_xyz
  1  'x, y, z'
loop_
 _atom_site_type_symbol
 _atom_site_label
 _atom_site_symmetry_multiplicity
 _atom_site_fract_x
 _atom_site_fract_y
 _atom_site_fract_z
 _atom_site_occupancy
  C  C1  1  0.521900  0.544730  0.435620  1
  C  C2  1  0.652600  0.487000  0.463670  1
  C  C3  1  0.369300  0.557620  0.471240  1
  C  C4  1  0.630700  0.442380  0.528760  1
  C  C5  1  0.805000  0.473670  0.429090  1
  C  C6  1  0.347400  0.513000  0.536330  1
  C  C7  1  0.236700  0.612670  0.443170  1
  C  C8  1  0.478100  0.455270  0.564380  1
  C  C9  1  0.763300  0.387330  0.556830  1
  C  C10  1  0.934500  0.419870  0.457380  1
  C  C11  1  0.195000  0.526330  0.570910  1
  C  C12  1  0.086600  0.623360  0.477040  1
  C  C13  1  0.913400  0.376640  0.522960  1
  C  C14  1  1.091100  0.407130  0.423910  1
  C  C15  1  0.065500  0.580130  0.542620  1
  C  C16  1  -0.050500  0.677210  0.449140  1
  C  C17  1  1.050500  0.322790  0.550860  1
  C  C18  1  1.216800  0.355470  0.452620  1
  C  C19  1  -0.091100  0.592870  0.576090  1
  C  C20  1  -0.195700  0.687750  0.482960  1
  C  C21  1  1.195700  0.312250  0.517040  1
  C  C22  1  -0.216800  0.644530  0.547380  1
  C  C23  1  0.469400  0.957780  0.564790  1
  C  C24  1  0.344200  1.015800  0.532710  1
  C  C25  1  0.625600  0.942190  0.532530  1
  C  C26  1  0.374400  1.057810  0.467470  1
  C  C27  1  0.188000  1.031730  0.564070  1
  C  C28  1  0.655800  0.984200  0.467290  1
  C  C29  1  0.752800  0.886210  0.563720  1
  C  C30  1  0.530600  1.042220  0.435210  1
  C  C31  1  0.247200  1.113790  0.436280  1
  C  C32  1  0.064100  1.086050  0.532950  1
  C  C33  1  0.812000  0.968270  0.435930  1
  C  C34  1  0.905900  0.872070  0.532480  1
  C  C35  1  0.094100  1.127930  0.467520  1
  C  C36  1  -0.095300  1.101390  0.563630  1
  C  C37  1  0.935900  0.913950  0.467050  1
  C  C38  1  1.037800  0.816040  0.562670  1
  C  C39  1  -0.037800  1.183960  0.437330  1
  C  C40  1  -0.216100  1.154290  0.532730  1
  C  C41  1  1.095300  0.898610  0.436370  1
  C  C42  1  1.186400  0.803200  0.531450  1
  C  C43  1  -0.186400  1.196800  0.468550  1
  C  C44  1  1.216100  0.845710  0.467270  1
  H  H45  1  0.538950  0.579639  0.386051  1
  H  H46  1  0.823288  0.505990  0.378881  1
  H  H47  1  0.250694  0.648142  0.393640  1
  H  H48  1  0.461050  0.420361  0.613949  1
  H  H49  1  0.749306  0.351858  0.606360  1
  H  H50  1  0.176712  0.494010  0.621119  1
  H  H51  1  1.115984  0.438472  0.373837  1
  H  H52  1  -0.043959  0.712184  0.399300  1
  H  H53  1  1.043959  0.287816  0.600700  1
  H  H54  1  1.334282  0.348716  0.424042  1
  H  H55  1  -0.115984  0.561528  0.626163  1
  H  H56  1  -0.295089  0.730805  0.458453  1
  H  H57  1  1.295089  0.269195  0.541547  1
  H  H58  1  -0.334282  0.651284  0.575958  1
  H  H59  1  0.445426  0.924967  0.614547  1
  H  H60  1  0.162083  1.000927  0.614203  1
  H  H61  1  0.732136  0.852828  0.613529  1
  H  H62  1  0.554574  1.075033  0.385453  1
  H  H63  1  0.267864  1.147172  0.386471  1
  H  H64  1  0.837917  0.999073  0.385797  1
  H  H65  1  -0.126521  1.071010  0.613438  1
  H  H66  1  1.024286  0.781089  0.612366  1
  H  H67  1  -0.024286  1.218911  0.387634  1
  H  H68  1  -0.336195  1.162581  0.559286  1
  H  H69  1  1.126521  0.928990  0.386562  1
  H  H70  1  1.281408  0.758972  0.557787  1
  H  H71  1  -0.281408  1.241028  0.442213  1
  H  H72  1  1.336195  0.837419  0.440714  1
