# generated using pymatgen
data_H5C7
_symmetry_space_group_name_H-M   'P 1'
_cell_length_a   8.62900000
_cell_length_b   10.44400000
_cell_length_c   10.76200000
_cell_angle_alpha   65.22300000
_cell_angle_beta   85.23700000
_cell_angle_gamma   82.88300000
_symmetry_Int_Tables_number   1
_chemical_formula_structural   H5C7
_chemical_formula_sum   'H10 C14'
_cell_volume   873.29716697
_cell_formula_units_Z   2
loop_
 _symmetry_equiv_pos_site_id
 _symmetry_equiv_pos_as_xyz
  1  'x, y, z'
loop_
 _atom_site_type_symbol
 _atom_site_label
 _atom_site_symmetry_multiplicity
 _atom_site_fract_x
 _atom_site_fract_y
 _atom_site_fract_z
 _atom_site_occupancy
  C  C1  1  0.014620  0.077950  0.078040  1
  C  C2  1  0.136220  0.070380  -0.016100  1
  C  C3  1  -0.121700  0.009060  0.094270  1
  C  C4  1  0.121700  -0.009060  -0.094270  1
  C  C5  1  0.272700  0.142720  -0.037930  1
  C  C6  1  -0.136220  -0.070380  0.016100  1
  C  C7  1  -0.247310  0.017950  0.185980  1
  C  C8  1  -0.014620  -0.077950  -0.078040  1
  C  C9  1  0.247310  -0.017950  -0.185980  1
  C  C10  1  0.389780  0.135660  -0.128970  1
  C  C11  1  -0.272700  -0.142720  0.037930  1
  C  C12  1  -0.376470  -0.051210  0.201780  1
  C  C13  1  0.376470  0.051210  -0.201780  1
  C  C14  1  -0.389780  -0.135660  0.128970  1
  H  H15  1  0.026183  0.138012  0.139241  1
  H  H16  1  0.288418  0.207051  0.018145  1
  H  H17  1  -0.244478  0.080214  0.246537  1
  H  H18  1  -0.026183  -0.138012  -0.139241  1
  H  H19  1  0.244478  -0.080214  -0.246537  1
  H  H20  1  0.490860  0.195653  -0.143102  1
  H  H21  1  -0.288418  -0.207051  -0.018145  1
  H  H22  1  -0.469810  -0.038891  0.273172  1
  H  H23  1  0.469810  0.038891  -0.273172  1
  H  H24  1  -0.490860  -0.195653  0.143102  1
