# generated using pymatgen
data_H7C11
_symmetry_space_group_name_H-M   'P 1'
_cell_length_a   10.26310000
_cell_length_b   16.58880000
_cell_length_c   16.81830000
_cell_angle_alpha   90.00000000
_cell_angle_beta   106.97320000
_cell_angle_gamma   90.00000000
_symmetry_Int_Tables_number   1
_chemical_formula_structural   H7C11
_chemical_formula_sum   'H28 C44'
_cell_volume   2738.63400714
_cell_formula_units_Z   4
loop_
 _symmetry_equiv_pos_site_id
 _symmetry_equiv_pos_as_xyz
  1  'x, y, z'
loop_
 _atom_site_type_symbol
 _atom_site_label
 _atom_site_symmetry_multiplicity
 _atom_site_fract_x
 _atom_site_fract_y
 _atom_site_fract_z
 _atom_site_occupancy
  C  C1  1  0.975700  0.445570  0.432350  1
  C  C2  1  0.880300  0.449910  0.478160  1
  C  C3  1  1.094500  0.494400  0.452910  1
  C  C4  1  0.905500  0.505600  0.547090  1
  C  C5  1  0.762400  0.401460  0.459520  1
  C  C6  1  1.119700  0.550090  0.521840  1
  C  C7  1  1.190200  0.489950  0.407990  1
  C  C8  1  1.024300  0.554430  0.567650  1
  C  C9  1  0.809800  0.510050  0.592010  1
  C  C10  1  0.669200  0.405620  0.505280  1
  C  C11  1  1.237600  0.598540  0.540480  1
  C  C12  1  1.305800  0.537670  0.427230  1
  C  C13  1  0.694200  0.462330  0.572770  1
  C  C14  1  0.550400  0.355820  0.489160  1
  C  C15  1  1.330800  0.594380  0.494720  1
  C  C16  1  1.401900  0.532870  0.380680  1
  C  C17  1  0.598100  0.467130  0.619320  1
  C  C18  1  0.463300  0.360710  0.536310  1
  C  C19  1  1.449600  0.644180  0.510840  1
  C  C20  1  1.512100  0.581110  0.396660  1
  C  C21  1  0.487900  0.418890  0.603340  1
  C  C22  1  1.536700  0.639290  0.463690  1
  C  C23  1  1.024300  0.945570  0.067650  1
  C  C24  1  1.119700  0.949910  0.021840  1
  C  C25  1  0.905500  0.994400  0.047090  1
  C  C26  1  1.094500  1.005600  -0.047090  1
  C  C27  1  1.237600  0.901460  0.040480  1
  C  C28  1  0.880300  1.050090  -0.021840  1
  C  C29  1  0.809800  0.989950  0.092010  1
  C  C30  1  0.975700  1.054430  -0.067650  1
  C  C31  1  1.190200  1.010050  -0.092010  1
  C  C32  1  1.330800  0.905620  -0.005280  1
  C  C33  1  0.762400  1.098540  -0.040480  1
  C  C34  1  0.694200  1.037670  0.072770  1
  C  C35  1  1.305800  0.962330  -0.072770  1
  C  C36  1  1.449600  0.855820  0.010840  1
  C  C37  1  0.669200  1.094380  0.005280  1
  C  C38  1  0.598100  1.032870  0.119320  1
  C  C39  1  1.401900  0.967130  -0.119320  1
  C  C40  1  1.536700  0.860710  -0.036310  1
  C  C41  1  0.550400  1.144180  -0.010840  1
  C  C42  1  0.487900  1.081110  0.103340  1
  C  C43  1  1.512100  0.918890  -0.103340  1
  C  C44  1  0.463300  1.139290  0.036310  1
  H  H45  1  0.957148  0.403417  0.379732  1
  H  H46  1  0.742363  0.358782  0.407278  1
  H  H47  1  1.174003  0.447487  0.355767  1
  H  H48  1  1.042852  0.596583  0.620268  1
  H  H49  1  0.825997  0.552513  0.644233  1
  H  H50  1  1.257637  0.641218  0.592722  1
  H  H51  1  0.524826  0.311699  0.438117  1
  H  H52  1  1.390379  0.489530  0.329585  1
  H  H53  1  0.609621  0.510470  0.670415  1
  H  H54  1  0.376061  0.319090  0.520784  1
  H  H55  1  1.475174  0.688301  0.561883  1
  H  H56  1  1.579075  0.573333  0.356717  1
  H  H57  1  0.420925  0.426667  0.643283  1
  H  H58  1  1.623939  0.680910  0.479216  1
  H  H59  1  1.042852  0.903417  0.120268  1
  H  H60  1  1.257637  0.858782  0.092722  1
  H  H61  1  0.825997  0.947487  0.144233  1
  H  H62  1  0.957148  1.096583  -0.120268  1
  H  H63  1  1.174003  1.052513  -0.144233  1
  H  H64  1  0.742363  1.141218  -0.092722  1
  H  H65  1  1.475174  0.811699  0.061883  1
  H  H66  1  0.609621  0.989530  0.170415  1
  H  H67  1  1.390379  1.010470  -0.170415  1
  H  H68  1  1.623939  0.819090  -0.020784  1
  H  H69  1  0.524826  1.188301  -0.061883  1
  H  H70  1  0.420925  1.073333  0.143283  1
  H  H71  1  1.579075  0.926667  -0.143283  1
  H  H72  1  0.376061  1.180910  0.020784  1
