# generated using pymatgen
data_H7C11
_symmetry_space_group_name_H-M   'P 1'
_cell_length_a   7.83720000
_cell_length_b   10.82730000
_cell_length_c   12.23760000
_cell_angle_alpha   69.94000000
_cell_angle_beta   84.78500000
_cell_angle_gamma   73.60800000
_symmetry_Int_Tables_number   1
_chemical_formula_structural   H7C11
_chemical_formula_sum   'H14 C22'
_cell_volume   935.76470161
_cell_formula_units_Z   2
loop_
 _symmetry_equiv_pos_site_id
 _symmetry_equiv_pos_as_xyz
  1  'x, y, z'
loop_
 _atom_site_type_symbol
 _atom_site_label
 _atom_site_symmetry_multiplicity
 _atom_site_fract_x
 _atom_site_fract_y
 _atom_site_fract_z
 _atom_site_occupancy
  C  C1  1  0.523100  0.427500  0.420200  1
  C  C2  1  0.385200  0.417900  0.502700  1
  C  C3  1  0.638600  0.509600  0.415700  1
  C  C4  1  0.361400  0.490400  0.584300  1
  C  C5  1  0.264800  0.340500  0.506200  1
  C  C6  1  0.614800  0.582100  0.497300  1
  C  C7  1  0.777700  0.519000  0.335900  1
  C  C8  1  0.476900  0.572500  0.579800  1
  C  C9  1  0.222300  0.481000  0.664100  1
  C  C10  1  0.125100  0.334200  0.583800  1
  C  C11  1  0.735200  0.659500  0.493800  1
  C  C12  1  0.898100  0.593100  0.333600  1
  C  C13  1  0.101900  0.406900  0.666400  1
  C  C14  1  0.000000  0.258100  0.584400  1
  C  C15  1  0.874900  0.665800  0.416200  1
  C  C16  1  1.046200  0.595400  0.254800  1
  C  C17  1  -0.046200  0.404600  0.745200  1
  C  C18  1  -0.135200  0.257400  0.662300  1
  C  C19  1  1.000000  0.741900  0.415600  1
  C  C20  1  1.158700  0.669500  0.258200  1
  C  C21  1  -0.158700  0.330500  0.741800  1
  C  C22  1  1.135200  0.742600  0.337700  1
  H  H23  1  0.540682  0.370593  0.358975  1
  H  H24  1  0.280511  0.282623  0.445881  1
  H  H25  1  0.793099  0.465720  0.272079  1
  H  H26  1  0.459318  0.629407  0.641025  1
  H  H27  1  0.206901  0.534280  0.727921  1
  H  H28  1  0.719489  0.717377  0.554119  1
  H  H29  1  0.007765  0.200134  0.524973  1
  H  H30  1  1.073503  0.540333  0.191757  1
  H  H31  1  -0.073503  0.459667  0.808243  1
  H  H32  1  -0.226431  0.197124  0.660993  1
  H  H33  1  0.992235  0.799866  0.475027  1
  H  H34  1  1.269511  0.670315  0.196194  1
  H  H35  1  -0.269511  0.329685  0.803806  1
  H  H36  1  1.226431  0.802876  0.339007  1
