# generated using pymatgen
data_H5C9S
_symmetry_space_group_name_H-M   'P 1'
_cell_length_a   15.54900000
_cell_length_b   6.85610000
_cell_length_c   15.42450000
_cell_angle_alpha   90.00000000
_cell_angle_beta   98.12500000
_cell_angle_gamma   90.00000000
_symmetry_Int_Tables_number   1
_chemical_formula_structural   H5C9S
_chemical_formula_sum   'H20 C36 S4'
_cell_volume   1627.83080547
_cell_formula_units_Z   4
loop_
 _symmetry_equiv_pos_site_id
 _symmetry_equiv_pos_as_xyz
  1  'x, y, z'
loop_
 _atom_site_type_symbol
 _atom_site_label
 _atom_site_symmetry_multiplicity
 _atom_site_fract_x
 _atom_site_fract_y
 _atom_site_fract_z
 _atom_site_occupancy
  C  C1  1  0.592610  0.498020  0.290350  1
  C  C2  1  0.501020  0.501600  0.258990  1
  C  C3  1  0.621980  0.494300  0.378190  1
  C  C4  1  0.484700  0.506200  0.164700  1
  C  C5  1  0.441940  0.503590  0.316540  1
  C  C6  1  0.560600  0.503600  0.130500  1
  C  C7  1  0.562040  0.496240  0.439850  1
  C  C8  1  0.470230  0.502310  0.408250  1
  C  C9  1  0.590400  0.492910  0.531140  1
  C  C10  1  0.409600  0.507090  0.468860  1
  C  C11  1  0.529770  0.497690  0.591750  1
  C  C12  1  0.437960  0.503760  0.560150  1
  C  C13  1  0.558060  0.496410  0.683460  1
  C  C14  1  0.378020  0.505700  0.621810  1
  C  C15  1  0.498980  0.498400  0.741010  1
  C  C16  1  0.407390  0.501980  0.709650  1
  C  C17  1  0.515300  0.493800  0.835300  1
  C  C18  1  0.439400  0.496400  0.869500  1
  C  C19  1  0.407390  0.998020  1.209650  1
  C  C20  1  0.498980  1.001600  1.241010  1
  C  C21  1  0.378020  0.994300  1.121810  1
  C  C22  1  0.515300  1.006200  1.335300  1
  C  C23  1  0.558060  1.003590  1.183460  1
  C  C24  1  0.439400  1.003600  1.369500  1
  C  C25  1  0.437960  0.996240  1.060150  1
  C  C26  1  0.529770  1.002310  1.091750  1
  C  C27  1  0.409600  0.992910  0.968860  1
  C  C28  1  0.590400  1.007090  1.031140  1
  C  C29  1  0.470230  0.997690  0.908250  1
  C  C30  1  0.562040  1.003760  0.939850  1
  C  C31  1  0.441940  0.996410  0.816540  1
  C  C32  1  0.621980  1.005700  0.878190  1
  C  C33  1  0.501020  0.998400  0.758990  1
  C  C34  1  0.592610  1.001980  0.790350  1
  C  C35  1  0.484700  0.993800  0.664700  1
  C  C36  1  0.560600  0.996400  0.630500  1
  H  H37  1  0.692613  0.489824  0.398895  1
  H  H38  1  0.421074  0.511168  0.123242  1
  H  H39  1  0.372605  0.506185  0.289431  1
  H  H40  1  0.547781  0.504658  0.058517  1
  H  H41  1  0.660382  0.486532  0.555267  1
  H  H42  1  0.339618  0.513468  0.444733  1
  H  H43  1  0.627395  0.493815  0.710569  1
  H  H44  1  0.307387  0.510176  0.601105  1
  H  H45  1  0.578926  0.488832  0.876758  1
  H  H46  1  0.452219  0.495342  0.941483  1
  H  H47  1  0.307387  0.989824  1.101105  1
  H  H48  1  0.578926  1.011168  1.376758  1
  H  H49  1  0.627395  1.006185  1.210569  1
  H  H50  1  0.452219  1.004658  1.441483  1
  H  H51  1  0.339618  0.986532  0.944733  1
  H  H52  1  0.660382  1.013468  1.055267  1
  H  H53  1  0.372605  0.993815  0.789431  1
  H  H54  1  0.692613  1.010176  0.898895  1
  H  H55  1  0.421074  0.988832  0.623242  1
  H  H56  1  0.547781  0.995342  0.558517  1
  S  S57  1  0.655890  0.499400  0.205180  1
  S  S58  1  0.344110  0.500600  0.794820  1
  S  S59  1  0.344110  0.999400  1.294820  1
  S  S60  1  0.655890  1.000600  0.705180  1
