# generated using pymatgen
data_H2C3
_symmetry_space_group_name_H-M   'P 1'
_cell_length_a   6.99360000
_cell_length_b   12.69070000
_cell_length_c   14.94440000
_cell_angle_alpha   75.76920000
_cell_angle_beta   89.67400000
_cell_angle_gamma   88.18020000
_symmetry_Int_Tables_number   1
_chemical_formula_structural   H2C3
_chemical_formula_sum   'H24 C36'
_cell_volume   1285.01711117
_cell_formula_units_Z   12
loop_
 _symmetry_equiv_pos_site_id
 _symmetry_equiv_pos_as_xyz
  1  'x, y, z'
loop_
 _atom_site_type_symbol
 _atom_site_label
 _atom_site_symmetry_multiplicity
 _atom_site_fract_x
 _atom_site_fract_y
 _atom_site_fract_z
 _atom_site_occupancy
  C  C1  1  0.751700  0.655770  0.502650  1
  C  C2  1  0.749900  0.542460  0.505610  1
  C  C3  1  0.753200  0.690950  0.584680  1
  C  C4  1  0.749500  0.464590  0.593450  1
  C  C5  1  0.748400  0.506940  0.424050  1
  C  C6  1  0.753300  0.613550  0.672120  1
  C  C7  1  0.754800  0.804670  0.581800  1
  C  C8  1  0.750400  0.501670  0.675900  1
  C  C9  1  0.747500  0.353320  0.594900  1
  C  C10  1  0.747100  0.396810  0.426300  1
  C  C11  1  0.755800  0.653650  0.753360  1
  C  C12  1  0.757300  0.838270  0.661240  1
  C  C13  1  0.746800  0.318530  0.514160  1
  C  C14  1  0.746100  0.358370  0.344370  1
  C  C15  1  0.757500  0.762070  0.747680  1
  C  C16  1  0.745900  0.206300  0.512850  1
  C  C17  1  0.745300  0.251660  0.347650  1
  C  C18  1  0.745300  0.174420  0.433840  1
  C  C19  1  1.248300  0.344230  0.497350  1
  C  C20  1  1.250100  0.457540  0.494390  1
  C  C21  1  1.246800  0.309050  0.415320  1
  C  C22  1  1.250500  0.535410  0.406550  1
  C  C23  1  1.251600  0.493060  0.575950  1
  C  C24  1  1.246700  0.386450  0.327880  1
  C  C25  1  1.245200  0.195330  0.418200  1
  C  C26  1  1.249600  0.498330  0.324100  1
  C  C27  1  1.252500  0.646680  0.405100  1
  C  C28  1  1.252900  0.603190  0.573700  1
  C  C29  1  1.244200  0.346350  0.246640  1
  C  C30  1  1.242700  0.161730  0.338760  1
  C  C31  1  1.253200  0.681470  0.485840  1
  C  C32  1  1.253900  0.641630  0.655630  1
  C  C33  1  1.242500  0.237930  0.252320  1
  C  C34  1  1.254100  0.793700  0.487150  1
  C  C35  1  1.254700  0.748340  0.652350  1
  C  C36  1  1.254700  0.825580  0.566160  1
  H  H37  1  0.751935  0.716889  0.436164  1
  H  H38  1  0.748240  0.566763  0.356851  1
  H  H39  1  0.754088  0.868076  0.516653  1
  H  H40  1  0.748829  0.442916  0.743632  1
  H  H41  1  0.746453  0.291719  0.661101  1
  H  H42  1  0.756441  0.598914  0.822997  1
  H  H43  1  0.759144  0.926297  0.655628  1
  H  H44  1  0.745937  0.413887  0.275077  1
  H  H45  1  0.759030  0.788007  0.812693  1
  H  H46  1  0.745654  0.140533  0.576448  1
  H  H47  1  0.744662  0.228162  0.281541  1
  H  H48  1  0.744816  0.086326  0.439636  1
  H  H49  1  1.248065  0.283111  0.563836  1
  H  H50  1  1.251760  0.433237  0.643149  1
  H  H51  1  1.245912  0.131924  0.483347  1
  H  H52  1  1.251171  0.557084  0.256368  1
  H  H53  1  1.253547  0.708281  0.338899  1
  H  H54  1  1.243559  0.401086  0.177003  1
  H  H55  1  1.240856  0.073703  0.344372  1
  H  H56  1  1.254063  0.586113  0.724923  1
  H  H57  1  1.240970  0.211993  0.187307  1
  H  H58  1  1.254346  0.859467  0.423552  1
  H  H59  1  1.255338  0.771838  0.718459  1
  H  H60  1  1.255184  0.913674  0.560364  1
