# generated using pymatgen
data_H2C9S
_symmetry_space_group_name_H-M   'P 1'
_cell_length_a   17.05570000
_cell_length_b   19.01180000
_cell_length_c   15.32340000
_cell_angle_alpha   90.00000000
_cell_angle_beta   110.02800000
_cell_angle_gamma   90.00000000
_symmetry_Int_Tables_number   1
_chemical_formula_structural   H2C9S
_chemical_formula_sum   'H16 C72 S8'
_cell_volume   4668.27502388
_cell_formula_units_Z   8
loop_
 _symmetry_equiv_pos_site_id
 _symmetry_equiv_pos_as_xyz
  1  'x, y, z'
loop_
 _atom_site_type_symbol
 _atom_site_label
 _atom_site_symmetry_multiplicity
 _atom_site_fract_x
 _atom_site_fract_y
 _atom_site_fract_z
 _atom_site_occupancy
  C  C1  1  0.979400  0.412200  0.381400  1
  C  C2  1  1.063600  0.402600  0.383200  1
  C  C3  1  0.932700  0.354700  0.385600  1
  C  C4  1  1.112700  0.478100  0.377400  1
  C  C5  1  1.095100  0.336200  0.383600  1
  C  C6  1  1.048700  0.521800  0.375300  1
  C  C7  1  0.965000  0.285100  0.388700  1
  C  C8  1  1.048700  0.276000  0.388200  1
  C  C9  1  0.918200  0.226200  0.392800  1
  C  C10  1  1.079600  0.208100  0.386800  1
  C  C11  1  0.948000  0.156600  0.388000  1
  C  C12  1  1.031300  0.147600  0.383800  1
  C  C13  1  0.899900  0.097000  0.385700  1
  C  C14  1  1.062000  0.078900  0.380200  1
  C  C15  1  0.928700  0.030000  0.379000  1
  C  C16  1  1.011300  0.022100  0.373600  1
  C  C17  1  0.868600  -0.042400  0.370600  1
  C  C18  1  0.946100  -0.091400  0.368100  1
  C  C19  1  1.020600  -0.087800  0.118600  1
  C  C20  1  0.936400  -0.097400  0.116800  1
  C  C21  1  1.067300  -0.145300  0.114400  1
  C  C22  1  0.887300  -0.021900  0.122600  1
  C  C23  1  0.904900  -0.163800  0.116400  1
  C  C24  1  0.951300  0.021800  0.124700  1
  C  C25  1  1.035000  -0.214900  0.111300  1
  C  C26  1  0.951300  -0.224000  0.111800  1
  C  C27  1  1.081800  -0.273800  0.107200  1
  C  C28  1  0.920400  -0.291900  0.113200  1
  C  C29  1  1.052000  -0.343400  0.112000  1
  C  C30  1  0.968700  -0.352400  0.116200  1
  C  C31  1  1.100100  -0.403000  0.114300  1
  C  C32  1  0.938000  -0.421100  0.119800  1
  C  C33  1  1.071300  -0.470000  0.121000  1
  C  C34  1  0.988700  -0.477900  0.126400  1
  C  C35  1  1.131400  -0.542400  0.129400  1
  C  C36  1  1.053900  -0.591400  0.131900  1
  C  C37  1  1.020600  -0.412200  0.618600  1
  C  C38  1  0.936400  -0.402600  0.616800  1
  C  C39  1  1.067300  -0.354700  0.614400  1
  C  C40  1  0.887300  -0.478100  0.622600  1
  C  C41  1  0.904900  -0.336200  0.616400  1
  C  C42  1  0.951300  -0.521800  0.624700  1
  C  C43  1  1.035000  -0.285100  0.611300  1
  C  C44  1  0.951300  -0.276000  0.611800  1
  C  C45  1  1.081800  -0.226200  0.607200  1
  C  C46  1  0.920400  -0.208100  0.613200  1
  C  C47  1  1.052000  -0.156600  0.612000  1
  C  C48  1  0.968700  -0.147600  0.616200  1
  C  C49  1  1.100100  -0.097000  0.614300  1
  C  C50  1  0.938000  -0.078900  0.619800  1
  C  C51  1  1.071300  -0.030000  0.621000  1
  C  C52  1  0.988700  -0.022100  0.626400  1
  C  C53  1  1.131400  0.042400  0.629400  1
  C  C54  1  1.053900  0.091400  0.631900  1
  C  C55  1  0.979400  0.087800  -0.118600  1
  C  C56  1  1.063600  0.097400  -0.116800  1
  C  C57  1  0.932700  0.145300  -0.114400  1
  C  C58  1  1.112700  0.021900  -0.122600  1
  C  C59  1  1.095100  0.163800  -0.116400  1
  C  C60  1  1.048700  -0.021800  -0.124700  1
  C  C61  1  0.965000  0.214900  -0.111300  1
  C  C62  1  1.048700  0.224000  -0.111800  1
  C  C63  1  0.918200  0.273800  -0.107200  1
  C  C64  1  1.079600  0.291900  -0.113200  1
  C  C65  1  0.948000  0.343400  -0.112000  1
  C  C66  1  1.031300  0.352400  -0.116200  1
  C  C67  1  0.899900  0.403000  -0.114300  1
  C  C68  1  1.062000  0.421100  -0.119800  1
  C  C69  1  0.928700  0.470000  -0.121000  1
  C  C70  1  1.011300  0.477900  -0.126400  1
  C  C71  1  0.868600  0.542400  -0.129400  1
  C  C72  1  0.946100  0.591400  -0.131900  1
  H  H73  1  1.077323  0.573680  0.375533  1
  H  H74  1  0.856892  0.234764  0.399923  1
  H  H75  1  1.144135  0.202070  0.388104  1
  H  H76  1  0.933429  -0.148092  0.368759  1
  H  H77  1  0.922677  0.073680  0.124467  1
  H  H78  1  1.143108  -0.265236  0.100077  1
  H  H79  1  0.855865  -0.297930  0.111896  1
  H  H80  1  1.066571  -0.648092  0.131241  1
  H  H81  1  0.922677  -0.573680  0.624467  1
  H  H82  1  1.143108  -0.234764  0.600077  1
  H  H83  1  0.855865  -0.202070  0.611896  1
  H  H84  1  1.066571  0.148092  0.631241  1
  H  H85  1  1.077323  -0.073680  -0.124467  1
  H  H86  1  0.856892  0.265236  -0.100077  1
  H  H87  1  1.144135  0.297930  -0.111896  1
  H  H88  1  0.933429  0.648092  -0.131241  1
  S  S89  1  0.947900  0.498800  0.372900  1
  S  S90  1  1.040900  -0.063000  0.364700  1
  S  S91  1  1.052100  -0.001200  0.127100  1
  S  S92  1  0.959100  -0.563000  0.135300  1
  S  S93  1  1.052100  -0.498800  0.627100  1
  S  S94  1  0.959100  0.063000  0.635300  1
  S  S95  1  0.947900  0.001200  -0.127100  1
  S  S96  1  1.040900  0.563000  -0.135300  1
