# generated using pymatgen
data_H7C11
_symmetry_space_group_name_H-M   'P 1'
_cell_length_a   7.71820000
_cell_length_b   15.54510000
_cell_length_c   16.87520000
_cell_angle_alpha   102.24660000
_cell_angle_beta   92.66640000
_cell_angle_gamma   91.54550000
_symmetry_Int_Tables_number   1
_chemical_formula_structural   H7C11
_chemical_formula_sum   'H28 C44'
_cell_volume   1975.06520632
_cell_formula_units_Z   4
loop_
 _symmetry_equiv_pos_site_id
 _symmetry_equiv_pos_as_xyz
  1  'x, y, z'
loop_
 _atom_site_type_symbol
 _atom_site_label
 _atom_site_symmetry_multiplicity
 _atom_site_fract_x
 _atom_site_fract_y
 _atom_site_fract_z
 _atom_site_occupancy
  C  C1  1  0.049200  0.706600  0.923890  1
  C  C2  1  -0.052900  0.649300  0.958950  1
  C  C3  1  0.096300  0.793500  0.968260  1
  C  C4  1  -0.104000  0.677100  1.041240  1
  C  C5  1  -0.106600  0.564200  0.914800  1
  C  C6  1  0.040400  0.822200  1.049250  1
  C  C7  1  0.190100  0.852100  0.932500  1
  C  C8  1  -0.058000  0.763600  1.085470  1
  C  C9  1  -0.199800  0.617400  1.076600  1
  C  C10  1  -0.201400  0.506900  0.950300  1
  C  C11  1  0.081400  0.909400  1.091500  1
  C  C12  1  0.226300  0.939000  0.974200  1
  C  C13  1  -0.247700  0.533800  1.033400  1
  C  C14  1  -0.256000  0.420000  0.906700  1
  C  C15  1  0.171500  0.967400  1.055100  1
  C  C16  1  0.315800  1.001200  0.938500  1
  C  C17  1  -0.343900  0.472700  1.067100  1
  C  C18  1  -0.348500  0.365900  0.941700  1
  C  C19  1  0.208000  1.057000  1.095300  1
  C  C20  1  0.348400  1.085400  0.979100  1
  C  C21  1  -0.392900  0.391500  1.023600  1
  C  C22  1  0.292900  1.113100  1.059000  1
  C  C23  1  -0.049200  0.293400  1.076110  1
  C  C24  1  0.052900  0.350700  1.041050  1
  C  C25  1  -0.096300  0.206500  1.031740  1
  C  C26  1  0.104000  0.322900  0.958760  1
  C  C27  1  0.106600  0.435800  1.085200  1
  C  C28  1  -0.040400  0.177800  0.950750  1
  C  C29  1  -0.190100  0.147900  1.067500  1
  C  C30  1  0.058000  0.236400  0.914530  1
  C  C31  1  0.199800  0.382600  0.923400  1
  C  C32  1  0.201400  0.493100  1.049700  1
  C  C33  1  -0.081400  0.090600  0.908500  1
  C  C34  1  -0.226300  0.061000  1.025800  1
  C  C35  1  0.247700  0.466200  0.966600  1
  C  C36  1  0.256000  0.580000  1.093300  1
  C  C37  1  -0.171500  0.032600  0.944900  1
  C  C38  1  -0.315800  -0.001200  1.061500  1
  C  C39  1  0.343900  0.527300  0.932900  1
  C  C40  1  0.348500  0.634100  1.058300  1
  C  C41  1  -0.208000  -0.057000  0.904700  1
  C  C42  1  -0.348400  -0.085400  1.020900  1
  C  C43  1  0.392900  0.608500  0.976400  1
  C  C44  1  -0.292900  -0.113100  0.941000  1
  H  H45  1  0.092083  0.683521  0.861959  1
  H  H46  1  -0.073755  0.541984  0.851148  1
  H  H47  1  0.235820  0.829637  0.871016  1
  H  H48  1  -0.098701  0.785271  1.147959  1
  H  H49  1  -0.238266  0.636593  1.139688  1
  H  H50  1  0.042337  0.932631  1.154072  1
  H  H51  1  -0.225449  0.393560  0.843340  1
  H  H52  1  0.361922  0.983367  0.876653  1
  H  H53  1  -0.382544  0.489156  1.130305  1
  H  H54  1  -0.387601  0.301111  0.903575  1
  H  H55  1  0.168830  1.084111  1.157211  1
  H  H56  1  0.418149  1.130131  0.947986  1
  H  H57  1  -0.466776  0.347522  1.053973  1
  H  H58  1  0.316666  1.180841  1.094245  1
  H  H59  1  -0.092083  0.316479  1.138041  1
  H  H60  1  0.073755  0.458016  1.148852  1
  H  H61  1  -0.235820  0.170363  1.128984  1
  H  H62  1  0.098701  0.214729  0.852041  1
  H  H63  1  0.238266  0.363407  0.860312  1
  H  H64  1  -0.042337  0.067369  0.845928  1
  H  H65  1  0.225449  0.606440  1.156660  1
  H  H66  1  -0.361922  0.016633  1.123347  1
  H  H67  1  0.382544  0.510844  0.869695  1
  H  H68  1  0.387601  0.698889  1.096425  1
  H  H69  1  -0.168830  -0.084111  0.842789  1
  H  H70  1  -0.418149  -0.130131  1.052014  1
  H  H71  1  0.466776  0.652478  0.946027  1
  H  H72  1  -0.316666  -0.180841  0.905755  1
