# generated using pymatgen
data_H5C9S
_symmetry_space_group_name_H-M   'P 1'
_cell_length_a   7.07100000
_cell_length_b   7.18140000
_cell_length_c   16.72660000
_cell_angle_alpha   97.89300000
_cell_angle_beta   93.70400000
_cell_angle_gamma   106.38700000
_symmetry_Int_Tables_number   1
_chemical_formula_structural   H5C9S
_chemical_formula_sum   'H10 C18 S2'
_cell_volume   802.36125452
_cell_formula_units_Z   2
loop_
 _symmetry_equiv_pos_site_id
 _symmetry_equiv_pos_as_xyz
  1  'x, y, z'
loop_
 _atom_site_type_symbol
 _atom_site_label
 _atom_site_symmetry_multiplicity
 _atom_site_fract_x
 _atom_site_fract_y
 _atom_site_fract_z
 _atom_site_occupancy
  C  C1  1  0.041900  0.144900  0.388440  1
  C  C2  1  -0.030100  0.197600  0.463580  1
  C  C3  1  0.234200  0.226300  0.374620  1
  C  C4  1  -0.237600  0.098900  0.461100  1
  C  C5  1  0.097100  0.327500  0.524850  1
  C  C6  1  -0.311300  -0.019100  0.392390  1
  C  C7  1  0.367300  0.364700  0.436240  1
  C  C8  1  0.299100  0.413200  0.513450  1
  C  C9  1  0.566200  0.454600  0.423770  1
  C  C10  1  0.433800  0.545400  0.576230  1
  C  C11  1  0.700900  0.586800  0.486550  1
  C  C12  1  0.632700  0.635300  0.563760  1
  C  C13  1  0.902900  0.672500  0.475150  1
  C  C14  1  0.765800  0.773700  0.625380  1
  C  C15  1  1.030100  0.802400  0.536420  1
  C  C16  1  0.958100  0.855100  0.611560  1
  C  C17  1  1.237600  0.901100  0.538900  1
  C  C18  1  1.311300  1.019100  0.607610  1
  H  H19  1  0.280736  0.181493  0.315317  1
  H  H20  1  -0.334463  0.112872  0.509046  1
  H  H21  1  0.037871  0.362499  0.582393  1
  H  H22  1  -0.470192  -0.090141  0.394420  1
  H  H23  1  0.617043  0.421100  0.364176  1
  H  H24  1  0.382957  0.578900  0.635824  1
  H  H25  1  0.962129  0.637501  0.417607  1
  H  H26  1  0.719264  0.818507  0.684683  1
  H  H27  1  1.334463  0.887128  0.490954  1
  H  H28  1  1.470192  1.090141  0.605580  1
  S  S29  1  -0.143200  -0.028990  0.320590  1
  S  S30  1  1.143200  1.028990  0.679410  1
