# generated using pymatgen
data_H5C9S
_symmetry_space_group_name_H-M   'P 1'
_cell_length_a   6.68250000
_cell_length_b   7.25460000
_cell_length_c   16.68450000
_cell_angle_alpha   97.82610000
_cell_angle_beta   94.76070000
_cell_angle_gamma   103.75770000
_symmetry_Int_Tables_number   1
_chemical_formula_structural   H5C9S
_chemical_formula_sum   'H10 C18 S2'
_cell_volume   772.70741134
_cell_formula_units_Z   2
loop_
 _symmetry_equiv_pos_site_id
 _symmetry_equiv_pos_as_xyz
  1  'x, y, z'
loop_
 _atom_site_type_symbol
 _atom_site_label
 _atom_site_symmetry_multiplicity
 _atom_site_fract_x
 _atom_site_fract_y
 _atom_site_fract_z
 _atom_site_occupancy
  C  C1  1  0.039200  0.141400  0.385390  1
  C  C2  1  -0.041100  0.190900  0.460110  1
  C  C3  1  0.236900  0.226800  0.372640  1
  C  C4  1  -0.253400  0.089300  0.457600  1
  C  C5  1  0.084900  0.321300  0.522270  1
  C  C6  1  -0.329700  -0.033000  0.388360  1
  C  C7  1  0.368700  0.365600  0.435210  1
  C  C8  1  0.293000  0.409600  0.512250  1
  C  C9  1  0.573800  0.459100  0.423910  1
  C  C10  1  0.426200  0.540900  0.576090  1
  C  C11  1  0.707000  0.590400  0.487750  1
  C  C12  1  0.631300  0.634400  0.564790  1
  C  C13  1  0.915100  0.678700  0.477730  1
  C  C14  1  0.763100  0.773200  0.627360  1
  C  C15  1  1.041100  0.809100  0.539890  1
  C  C16  1  0.960800  0.858600  0.614610  1
  C  C17  1  1.253400  0.910700  0.542400  1
  C  C18  1  1.329700  1.033000  0.611640  1
  H  H19  1  0.288630  0.184882  0.313515  1
  H  H20  1  -0.352575  0.104395  0.506261  1
  H  H21  1  0.019957  0.354602  0.579366  1
  H  H22  1  -0.492645  -0.110302  0.388411  1
  H  H23  1  0.630484  0.429299  0.364671  1
  H  H24  1  0.369516  0.570701  0.635329  1
  H  H25  1  0.980043  0.645398  0.420634  1
  H  H26  1  0.711370  0.815118  0.686485  1
  H  H27  1  1.352575  0.895605  0.493739  1
  H  H28  1  1.492645  1.110302  0.611589  1
  S  S29  1  -0.148710  -0.033240  0.319040  1
  S  S30  1  1.148710  1.033240  0.680960  1
