# generated using pymatgen
data_H7C11
_symmetry_space_group_name_H-M   'P 1'
_cell_length_a   8.89200000
_cell_length_b   14.31580000
_cell_length_c   17.07670000
_cell_angle_alpha   87.02100000
_cell_angle_beta   80.90000000
_cell_angle_gamma   83.55200000
_symmetry_Int_Tables_number   1
_chemical_formula_structural   H7C11
_chemical_formula_sum   'H28 C44'
_cell_volume   2131.56268369
_cell_formula_units_Z   4
loop_
 _symmetry_equiv_pos_site_id
 _symmetry_equiv_pos_as_xyz
  1  'x, y, z'
loop_
 _atom_site_type_symbol
 _atom_site_label
 _atom_site_symmetry_multiplicity
 _atom_site_fract_x
 _atom_site_fract_y
 _atom_site_fract_z
 _atom_site_occupancy
  C  C1  1  0.449100  0.226040  0.627440  1
  C  C2  1  0.599200  0.201120  0.586780  1
  C  C3  1  0.332500  0.268080  0.585380  1
  C  C4  1  0.632800  0.217000  0.502370  1
  C  C5  1  0.717600  0.161350  0.627940  1
  C  C6  1  0.365600  0.284100  0.500720  1
  C  C7  1  0.183600  0.295030  0.624500  1
  C  C8  1  0.515100  0.258300  0.460220  1
  C  C9  1  0.782200  0.191240  0.463470  1
  C  C10  1  0.864000  0.136040  0.589400  1
  C  C11  1  0.247900  0.324600  0.459720  1
  C  C12  1  0.068300  0.335760  0.583740  1
  C  C13  1  0.898000  0.150660  0.504170  1
  C  C14  1  0.985700  0.094060  0.630520  1
  C  C15  1  0.101000  0.350320  0.498740  1
  C  C16  1  -0.083600  0.365380  0.623060  1
  C  C17  1  1.050600  0.122560  0.465450  1
  C  C18  1  1.127200  0.065860  0.591010  1
  C  C19  1  -0.021700  0.391370  0.457780  1
  C  C20  1  -0.195100  0.405370  0.582090  1
  C  C21  1  1.161100  0.081270  0.506500  1
  C  C22  1  -0.163500  0.418190  0.497340  1
  C  C23  1  0.550900  -0.226040  0.372560  1
  C  C24  1  0.400800  -0.201120  0.413220  1
  C  C25  1  0.667500  -0.268080  0.414620  1
  C  C26  1  0.367200  -0.217000  0.497630  1
  C  C27  1  0.282400  -0.161350  0.372060  1
  C  C28  1  0.634400  -0.284100  0.499280  1
  C  C29  1  0.816400  -0.295030  0.375500  1
  C  C30  1  0.484900  -0.258300  0.539780  1
  C  C31  1  0.217800  -0.191240  0.536530  1
  C  C32  1  0.136000  -0.136040  0.410600  1
  C  C33  1  0.752100  -0.324600  0.540280  1
  C  C34  1  0.931700  -0.335760  0.416260  1
  C  C35  1  0.102000  -0.150660  0.495830  1
  C  C36  1  0.014300  -0.094060  0.369480  1
  C  C37  1  0.899000  -0.350320  0.501260  1
  C  C38  1  1.083600  -0.365380  0.376940  1
  C  C39  1  -0.050600  -0.122560  0.534550  1
  C  C40  1  -0.127200  -0.065860  0.408990  1
  C  C41  1  1.021700  -0.391370  0.542220  1
  C  C42  1  1.195100  -0.405370  0.417910  1
  C  C43  1  -0.161100  -0.081270  0.493500  1
  C  C44  1  1.163500  -0.418190  0.502660  1
  H  H45  1  0.422988  0.212695  0.691918  1
  H  H46  1  0.694846  0.149599  0.692707  1
  H  H47  1  0.156392  0.283871  0.689185  1
  H  H48  1  0.539981  0.270428  0.395553  1
  H  H49  1  0.809464  0.203265  0.398881  1
  H  H50  1  0.271518  0.336555  0.394996  1
  H  H51  1  0.969767  0.082971  0.695402  1
  H  H52  1  -0.116133  0.357029  0.687715  1
  H  H53  1  1.084563  0.133201  0.401098  1
  H  H54  1  1.212085  0.031456  0.626510  1
  H  H55  1  -0.006319  0.402829  0.392937  1
  H  H56  1  -0.307896  0.426786  0.616599  1
  H  H57  1  1.274643  0.060920  0.472327  1
  H  H58  1  -0.250385  0.449443  0.461711  1
  H  H59  1  0.577012  -0.212695  0.308082  1
  H  H60  1  0.305154  -0.149599  0.307293  1
  H  H61  1  0.843608  -0.283871  0.310815  1
  H  H62  1  0.460019  -0.270428  0.604447  1
  H  H63  1  0.190536  -0.203265  0.601119  1
  H  H64  1  0.728482  -0.336555  0.605004  1
  H  H65  1  0.030233  -0.082971  0.304598  1
  H  H66  1  1.116133  -0.357029  0.312285  1
  H  H67  1  -0.084563  -0.133201  0.598902  1
  H  H68  1  -0.212085  -0.031456  0.373490  1
  H  H69  1  1.006319  -0.402829  0.607063  1
  H  H70  1  1.307896  -0.426786  0.383401  1
  H  H71  1  -0.274643  -0.060920  0.527673  1
  H  H72  1  1.250385  -0.449443  0.538289  1
