# generated using pymatgen
data_H2C3
_symmetry_space_group_name_H-M   'P 1'
_cell_length_a   7.65120000
_cell_length_b   11.83100000
_cell_length_c   21.58900000
_cell_angle_alpha   103.31000000
_cell_angle_beta   92.60000000
_cell_angle_gamma   90.83000000
_symmetry_Int_Tables_number   1
_chemical_formula_structural   H2C3
_chemical_formula_sum   'H24 C36'
_cell_volume   1899.18876863
_cell_formula_units_Z   12
loop_
 _symmetry_equiv_pos_site_id
 _symmetry_equiv_pos_as_xyz
  1  'x, y, z'
loop_
 _atom_site_type_symbol
 _atom_site_label
 _atom_site_symmetry_multiplicity
 _atom_site_fract_x
 _atom_site_fract_y
 _atom_site_fract_z
 _atom_site_occupancy
  C  C1  1  0.951300  0.745100  0.268730  1
  C  C2  1  1.027200  0.685680  0.211450  1
  C  C3  1  1.017500  0.855400  0.302300  1
  C  C4  1  1.177400  0.738980  0.188830  1
  C  C5  1  0.965900  0.575560  0.176160  1
  C  C6  1  1.158500  0.910190  0.278350  1
  C  C7  1  0.946800  0.915660  0.360830  1
  C  C8  1  1.237700  0.852660  0.222280  1
  C  C9  1  1.254600  0.676730  0.133190  1
  C  C10  1  1.048800  0.513700  0.123020  1
  C  C11  1  1.215100  1.024580  0.311800  1
  C  C12  1  1.006700  1.023120  0.391730  1
  C  C13  1  1.197100  0.565550  0.101320  1
  C  C14  1  0.990800  0.399040  0.089280  1
  C  C15  1  1.141100  1.079140  0.366340  1
  C  C16  1  1.279100  0.501350  0.046280  1
  C  C17  1  1.073300  0.342170  0.037420  1
  C  C18  1  1.218900  0.393940  0.015110  1
  C  C19  1  1.048700  0.254900  -0.268730  1
  C  C20  1  0.972800  0.314320  -0.211450  1
  C  C21  1  0.982500  0.144600  -0.302300  1
  C  C22  1  0.822600  0.261020  -0.188830  1
  C  C23  1  1.034100  0.424440  -0.176160  1
  C  C24  1  0.841500  0.089810  -0.278350  1
  C  C25  1  1.053200  0.084340  -0.360830  1
  C  C26  1  0.762300  0.147340  -0.222280  1
  C  C27  1  0.745400  0.323270  -0.133190  1
  C  C28  1  0.951200  0.486300  -0.123020  1
  C  C29  1  0.784900  -0.024580  -0.311800  1
  C  C30  1  0.993300  -0.023120  -0.391730  1
  C  C31  1  0.802900  0.434450  -0.101320  1
  C  C32  1  1.009200  0.600960  -0.089280  1
  C  C33  1  0.858900  -0.079140  -0.366340  1
  C  C34  1  0.720900  0.498650  -0.046280  1
  C  C35  1  0.926700  0.657830  -0.037420  1
  C  C36  1  0.781100  0.606060  -0.015110  1
  H  H37  1  0.840211  0.705324  0.287266  1
  H  H38  1  0.848110  0.536139  0.190741  1
  H  H39  1  0.841391  0.877564  0.383131  1
  H  H40  1  1.346338  0.896388  0.204664  1
  H  H41  1  1.364187  0.716538  0.113852  1
  H  H42  1  1.319986  1.072630  0.294863  1
  H  H43  1  0.947317  1.064122  0.436598  1
  H  H44  1  0.879150  0.353117  0.103679  1
  H  H45  1  1.189324  1.167427  0.389613  1
  H  H46  1  1.393586  0.536139  0.027062  1
  H  H47  1  1.022524  0.254748  0.013641  1
  H  H48  1  1.286620  0.349819  -0.027298  1
  H  H49  1  1.159789  0.294676  -0.287266  1
  H  H50  1  1.151890  0.463861  -0.190741  1
  H  H51  1  1.158609  0.122436  -0.383131  1
  H  H52  1  0.653662  0.103612  -0.204664  1
  H  H53  1  0.635813  0.283462  -0.113852  1
  H  H54  1  0.680014  -0.072630  -0.294863  1
  H  H55  1  1.052683  -0.064122  -0.436598  1
  H  H56  1  1.120850  0.646883  -0.103679  1
  H  H57  1  0.810676  -0.167427  -0.389613  1
  H  H58  1  0.606414  0.463861  -0.027062  1
  H  H59  1  0.977476  0.745252  -0.013641  1
  H  H60  1  0.713380  0.650181  0.027298  1
