# generated using pymatgen
data_H7C11
_symmetry_space_group_name_H-M   'P 1'
_cell_length_a   7.17460000
_cell_length_b   7.84620000
_cell_length_c   16.41970000
_cell_angle_alpha   92.30700000
_cell_angle_beta   101.95600000
_cell_angle_gamma   92.83500000
_symmetry_Int_Tables_number   1
_chemical_formula_structural   H7C11
_chemical_formula_sum   'H14 C22'
_cell_volume   901.95480372
_cell_formula_units_Z   2
loop_
 _symmetry_equiv_pos_site_id
 _symmetry_equiv_pos_as_xyz
  1  'x, y, z'
loop_
 _atom_site_type_symbol
 _atom_site_label
 _atom_site_symmetry_multiplicity
 _atom_site_fract_x
 _atom_site_fract_y
 _atom_site_fract_z
 _atom_site_occupancy
  C  C1  1  0.525510  0.565000  0.583780  1
  C  C2  1  0.664140  0.609390  0.536770  1
  C  C3  1  0.362660  0.456820  0.548600  1
  C  C4  1  0.637340  0.543180  0.451400  1
  C  C5  1  0.827800  0.714200  0.570920  1
  C  C6  1  0.335860  0.390610  0.463230  1
  C  C7  1  0.222960  0.412920  0.594110  1
  C  C8  1  0.474490  0.435000  0.416220  1
  C  C9  1  0.777040  0.587080  0.405890  1
  C  C10  1  0.965770  0.754480  0.525850  1
  C  C11  1  0.172200  0.285800  0.429080  1
  C  C12  1  0.060810  0.310650  0.559320  1
  C  C13  1  0.939190  0.689350  0.440680  1
  C  C14  1  1.133490  0.860210  0.560480  1
  C  C15  1  0.034230  0.245520  0.474150  1
  C  C16  1  -0.082750  0.268390  0.605170  1
  C  C17  1  1.082750  0.731610  0.394830  1
  C  C18  1  1.266490  0.896200  0.514900  1
  C  C19  1  -0.133490  0.139790  0.439520  1
  C  C20  1  -0.240740  0.169040  0.569420  1
  C  C21  1  1.240740  0.830960  0.430580  1
  C  C22  1  -0.266490  0.103800  0.485100  1
  H  H23  1  0.544629  0.615355  0.648660  1
  H  H24  1  0.848743  0.766805  0.635501  1
  H  H25  1  0.241214  0.460380  0.659401  1
  H  H26  1  0.455371  0.384645  0.351340  1
  H  H27  1  0.758786  0.539620  0.340599  1
  H  H28  1  0.151257  0.233195  0.364499  1
  H  H29  1  1.161281  0.916032  0.624682  1
  H  H30  1  -0.071223  0.313995  0.670354  1
  H  H31  1  1.071223  0.686005  0.329646  1
  H  H32  1  1.393096  0.976933  0.545796  1
  H  H33  1  -0.161281  0.083968  0.375318  1
  H  H34  1  -0.345901  0.141915  0.608044  1
  H  H35  1  1.345901  0.858085  0.391956  1
  H  H36  1  -0.393096  0.023067  0.454204  1
