# generated using pymatgen
data_H7C11
_symmetry_space_group_name_H-M   'P 1'
_cell_length_a   16.45390000
_cell_length_b   16.51600000
_cell_length_c   17.25900000
_cell_angle_alpha   90.00000000
_cell_angle_beta   90.00000000
_cell_angle_gamma   90.00000000
_symmetry_Int_Tables_number   1
_chemical_formula_structural   H7C11
_chemical_formula_sum   'H56 C88'
_cell_volume   4690.17833741
_cell_formula_units_Z   8
loop_
 _symmetry_equiv_pos_site_id
 _symmetry_equiv_pos_as_xyz
  1  'x, y, z'
loop_
 _atom_site_type_symbol
 _atom_site_label
 _atom_site_symmetry_multiplicity
 _atom_site_fract_x
 _atom_site_fract_y
 _atom_site_fract_z
 _atom_site_occupancy
  C  C1  1  0.142050  0.509820  0.257630  1
  C  C2  1  0.165450  0.542750  0.184740  1
  C  C3  1  0.169130  0.545880  0.327180  1
  C  C4  1  0.222330  0.609290  0.182040  1
  C  C5  1  0.133370  0.512070  0.114750  1
  C  C6  1  0.225510  0.612940  0.324370  1
  C  C7  1  0.141500  0.519060  0.400200  1
  C  C8  1  0.253100  0.642170  0.251700  1
  C  C9  1  0.245840  0.640140  0.109360  1
  C  C10  1  0.155670  0.544390  0.043780  1
  C  C11  1  0.252160  0.648310  0.394080  1
  C  C12  1  0.167040  0.555520  0.468110  1
  C  C13  1  0.213570  0.609860  0.041090  1
  C  C14  1  0.124630  0.514820  -0.027760  1
  C  C15  1  0.224040  0.621590  0.464920  1
  C  C16  1  0.140280  0.529370  0.543220  1
  C  C17  1  0.235940  0.640680  -0.033100  1
  C  C18  1  0.148060  0.545550  -0.096390  1
  C  C19  1  0.249950  0.657230  0.536440  1
  C  C20  1  0.166420  0.565110  0.608590  1
  C  C21  1  0.205130  0.609690  -0.099220  1
  C  C22  1  0.222100  0.630560  0.605490  1
  C  C23  1  0.357950  0.490180  -0.242370  1
  C  C24  1  0.334550  0.457250  -0.315260  1
  C  C25  1  0.330870  0.454120  -0.172820  1
  C  C26  1  0.277670  0.390710  -0.317960  1
  C  C27  1  0.366630  0.487930  -0.385250  1
  C  C28  1  0.274490  0.387060  -0.175630  1
  C  C29  1  0.358500  0.480940  -0.099800  1
  C  C30  1  0.246900  0.357830  -0.248300  1
  C  C31  1  0.254160  0.359860  -0.390640  1
  C  C32  1  0.344330  0.455610  -0.456220  1
  C  C33  1  0.247840  0.351690  -0.105920  1
  C  C34  1  0.332960  0.444480  -0.031890  1
  C  C35  1  0.286430  0.390140  -0.458910  1
  C  C36  1  0.375370  0.485180  -0.527760  1
  C  C37  1  0.275960  0.378410  -0.035080  1
  C  C38  1  0.359720  0.470630  0.043220  1
  C  C39  1  0.264060  0.359320  -0.533100  1
  C  C40  1  0.351940  0.454450  -0.596390  1
  C  C41  1  0.250050  0.342770  0.036440  1
  C  C42  1  0.333580  0.434890  0.108590  1
  C  C43  1  0.294870  0.390310  -0.599220  1
  C  C44  1  0.277900  0.369440  0.105490  1
  C  C45  1  -0.357950  0.990180  0.742370  1
  C  C46  1  -0.334550  0.957250  0.815260  1
  C  C47  1  -0.330870  0.954120  0.672820  1
  C  C48  1  -0.277670  0.890710  0.817960  1
  C  C49  1  -0.366630  0.987930  0.885250  1
  C  C50  1  -0.274490  0.887060  0.675630  1
  C  C51  1  -0.358500  0.980940  0.599800  1
  C  C52  1  -0.246900  0.857830  0.748300  1
  C  C53  1  -0.254160  0.859860  0.890640  1
  C  C54  1  -0.344330  0.955610  0.956220  1
  C  C55  1  -0.247840  0.851690  0.605920  1
  C  C56  1  -0.332960  0.944480  0.531890  1
  C  C57  1  -0.286430  0.890140  0.958910  1
  C  C58  1  -0.375370  0.985180  1.027760  1
  C  C59  1  -0.275960  0.878410  0.535080  1
  C  C60  1  -0.359720  0.970630  0.456780  1
  C  C61  1  -0.264060  0.859320  1.033100  1
  C  C62  1  -0.351940  0.954450  1.096390  1
  C  C63  1  -0.250050  0.842770  0.463560  1
  C  C64  1  -0.333580  0.934890  0.391410  1
  C  C65  1  -0.294870  0.890310  1.099220  1
  C  C66  1  -0.277900  0.869440  0.394510  1
  C  C67  1  -0.142050  0.009820  0.242370  1
  C  C68  1  -0.165450  0.042750  0.315260  1
  C  C69  1  -0.169130  0.045880  0.172820  1
  C  C70  1  -0.222330  0.109290  0.317960  1
  C  C71  1  -0.133370  0.012070  0.385250  1
  C  C72  1  -0.225510  0.112940  0.175630  1
  C  C73  1  -0.141500  0.019060  0.099800  1
  C  C74  1  -0.253100  0.142170  0.248300  1
  C  C75  1  -0.245840  0.140140  0.390640  1
  C  C76  1  -0.155670  0.044390  0.456220  1
  C  C77  1  -0.252160  0.148310  0.105920  1
  C  C78  1  -0.167040  0.055520  0.031890  1
  C  C79  1  -0.213570  0.109860  0.458910  1
  C  C80  1  -0.124630  0.014820  0.527760  1
  C  C81  1  -0.224040  0.121590  0.035080  1
  C  C82  1  -0.140280  0.029370  -0.043220  1
  C  C83  1  -0.235940  0.140680  0.533100  1
  C  C84  1  -0.148060  0.045550  0.596390  1
  C  C85  1  -0.249950  0.157230  -0.036440  1
  C  C86  1  -0.166420  0.065110  -0.108590  1
  C  C87  1  -0.205130  0.109690  0.599220  1
  C  C88  1  -0.222100  0.130560  -0.105490  1
  H  H89  1  0.102702  0.456044  0.260233  1
  H  H90  1  0.089784  0.461575  0.115535  1
  H  H91  1  0.098678  0.468096  0.404315  1
  H  H92  1  0.298756  0.690760  0.249345  1
  H  H93  1  0.290740  0.689346  0.105810  1
  H  H94  1  0.296286  0.698334  0.393170  1
  H  H95  1  0.079941  0.465348  -0.030147  1
  H  H96  1  0.097273  0.479054  0.551138  1
  H  H97  1  0.279216  0.690979  -0.039667  1
  H  H98  1  0.121218  0.518892  -0.148893  1
  H  H99  1  0.293506  0.707713  0.538441  1
  H  H100  1  0.142680  0.541234  0.663616  1
  H  H101  1  0.226072  0.636127  -0.154207  1
  H  H102  1  0.244219  0.661382  0.657907  1
  H  H103  1  0.397298  0.543956  -0.239767  1
  H  H104  1  0.410216  0.538425  -0.384465  1
  H  H105  1  0.401322  0.531904  -0.095685  1
  H  H106  1  0.201244  0.309240  -0.250655  1
  H  H107  1  0.209260  0.310654  -0.394190  1
  H  H108  1  0.203714  0.301666  -0.106830  1
  H  H109  1  0.420059  0.534652  -0.530147  1
  H  H110  1  0.402727  0.520946  0.051138  1
  H  H111  1  0.220784  0.309021  -0.539667  1
  H  H112  1  0.378782  0.481108  -0.648893  1
  H  H113  1  0.206494  0.292287  0.038441  1
  H  H114  1  0.357320  0.458766  0.163616  1
  H  H115  1  0.273928  0.363873  -0.654207  1
  H  H116  1  0.255781  0.338618  0.157907  1
  H  H117  1  -0.397298  1.043956  0.739767  1
  H  H118  1  -0.410216  1.038425  0.884465  1
  H  H119  1  -0.401322  1.031904  0.595685  1
  H  H120  1  -0.201244  0.809240  0.750655  1
  H  H121  1  -0.209260  0.810654  0.894190  1
  H  H122  1  -0.203714  0.801666  0.606830  1
  H  H123  1  -0.420059  1.034652  1.030147  1
  H  H124  1  -0.402727  1.020946  0.448862  1
  H  H125  1  -0.220784  0.809021  1.039667  1
  H  H126  1  -0.378782  0.981108  1.148893  1
  H  H127  1  -0.206494  0.792287  0.461559  1
  H  H128  1  -0.357320  0.958766  0.336384  1
  H  H129  1  -0.273928  0.863873  1.154207  1
  H  H130  1  -0.255781  0.838618  0.342093  1
  H  H131  1  -0.102702  -0.043956  0.239767  1
  H  H132  1  -0.089784  -0.038425  0.384465  1
  H  H133  1  -0.098678  -0.031904  0.095685  1
  H  H134  1  -0.298756  0.190760  0.250655  1
  H  H135  1  -0.290740  0.189346  0.394190  1
  H  H136  1  -0.296286  0.198334  0.106830  1
  H  H137  1  -0.079941  -0.034652  0.530147  1
  H  H138  1  -0.097273  -0.020946  -0.051138  1
  H  H139  1  -0.279216  0.190979  0.539667  1
  H  H140  1  -0.121218  0.018892  0.648893  1
  H  H141  1  -0.293506  0.207713  -0.038441  1
  H  H142  1  -0.142680  0.041234  -0.163616  1
  H  H143  1  -0.226072  0.136127  0.654207  1
  H  H144  1  -0.244219  0.161382  -0.157907  1
