# generated using pymatgen
data_H5C9S
_symmetry_space_group_name_H-M   'P 1'
_cell_length_a   8.78650000
_cell_length_b   17.69670000
_cell_length_c   12.10650000
_cell_angle_alpha   90.00000000
_cell_angle_beta   90.46380000
_cell_angle_gamma   90.00000000
_symmetry_Int_Tables_number   1
_chemical_formula_structural   H5C9S
_chemical_formula_sum   'H20 C36 S4'
_cell_volume   1882.40288320
_cell_formula_units_Z   4
loop_
 _symmetry_equiv_pos_site_id
 _symmetry_equiv_pos_as_xyz
  1  'x, y, z'
loop_
 _atom_site_type_symbol
 _atom_site_label
 _atom_site_symmetry_multiplicity
 _atom_site_fract_x
 _atom_site_fract_y
 _atom_site_fract_z
 _atom_site_occupancy
  C  C1  1  0.362100  0.446990  0.363560  1
  C  C2  1  0.388200  0.525700  0.385120  1
  C  C3  1  0.229600  0.412790  0.395330  1
  C  C4  1  0.534500  0.548700  0.347000  1
  C  C5  1  0.279600  0.567970  0.436780  1
  C  C6  1  0.613700  0.491500  0.300100  1
  C  C7  1  0.115300  0.455460  0.449020  1
  C  C8  1  0.140200  0.534510  0.469030  1
  C  C9  1  -0.023400  0.422020  0.480990  1
  C  C10  1  0.023400  0.577980  0.519010  1
  C  C11  1  -0.140200  0.465490  0.530970  1
  C  C12  1  -0.115300  0.544540  0.550980  1
  C  C13  1  -0.279600  0.432030  0.563220  1
  C  C14  1  -0.229600  0.587210  0.604670  1
  C  C15  1  -0.388200  0.474300  0.614880  1
  C  C16  1  -0.362100  0.553010  0.636440  1
  C  C17  1  -0.534500  0.451300  0.653000  1
  C  C18  1  -0.613700  0.508500  0.699900  1
  C  C19  1  -0.362100  -0.053010  0.136440  1
  C  C20  1  -0.388200  0.025700  0.114880  1
  C  C21  1  -0.229600  -0.087210  0.104670  1
  C  C22  1  -0.534500  0.048700  0.153000  1
  C  C23  1  -0.279600  0.067970  0.063220  1
  C  C24  1  -0.613700  -0.008500  0.199900  1
  C  C25  1  -0.115300  -0.044540  0.050980  1
  C  C26  1  -0.140200  0.034510  0.030970  1
  C  C27  1  0.023400  -0.077980  0.019010  1
  C  C28  1  -0.023400  0.077980  -0.019010  1
  C  C29  1  0.140200  -0.034510  -0.030970  1
  C  C30  1  0.115300  0.044540  -0.050980  1
  C  C31  1  0.279600  -0.067970  -0.063220  1
  C  C32  1  0.229600  0.087210  -0.104670  1
  C  C33  1  0.388200  -0.025700  -0.114880  1
  C  C34  1  0.362100  0.053010  -0.136440  1
  C  C35  1  0.534500  -0.048700  -0.153000  1
  C  C36  1  0.613700  0.008500  -0.199900  1
  H  H37  1  0.215248  0.352173  0.378045  1
  H  H38  1  0.582422  0.605978  0.353271  1
  H  H39  1  0.304029  0.628034  0.452175  1
  H  H40  1  0.726914  0.509673  0.272501  1
  H  H41  1  -0.040712  0.361223  0.466753  1
  H  H42  1  0.040712  0.638777  0.533247  1
  H  H43  1  -0.304029  0.371966  0.547825  1
  H  H44  1  -0.215248  0.647827  0.621955  1
  H  H45  1  -0.582422  0.394022  0.646729  1
  H  H46  1  -0.726914  0.490327  0.727499  1
  H  H47  1  -0.215248  -0.147827  0.121955  1
  H  H48  1  -0.582422  0.105978  0.146729  1
  H  H49  1  -0.304029  0.128034  0.047825  1
  H  H50  1  -0.726914  0.009673  0.227499  1
  H  H51  1  0.040712  -0.138777  0.033247  1
  H  H52  1  -0.040712  0.138777  -0.033247  1
  H  H53  1  0.304029  -0.128034  -0.047825  1
  H  H54  1  0.215248  0.147827  -0.121955  1
  H  H55  1  0.582422  -0.105978  -0.146729  1
  H  H56  1  0.726914  -0.009673  -0.227499  1
  S  S57  1  0.516100  0.405920  0.296300  1
  S  S58  1  -0.516100  0.594080  0.703700  1
  S  S59  1  -0.516100  -0.094080  0.203700  1
  S  S60  1  0.516100  0.094080  -0.203700  1
