# generated using pymatgen
data_H5C7
_symmetry_space_group_name_H-M   'P 1'
_cell_length_a   14.88000000
_cell_length_b   14.26000000
_cell_length_c   30.73000000
_cell_angle_alpha   90.00000000
_cell_angle_beta   90.00000000
_cell_angle_gamma   90.00000000
_symmetry_Int_Tables_number   1
_chemical_formula_structural   H5C7
_chemical_formula_sum   'H80 C112'
_cell_volume   6520.56182400
_cell_formula_units_Z   16
loop_
 _symmetry_equiv_pos_site_id
 _symmetry_equiv_pos_as_xyz
  1  'x, y, z'
loop_
 _atom_site_type_symbol
 _atom_site_label
 _atom_site_symmetry_multiplicity
 _atom_site_fract_x
 _atom_site_fract_y
 _atom_site_fract_z
 _atom_site_occupancy
  C  C1  1  0.002700  0.258800  0.153900  1
  C  C2  1  0.034800  0.344500  0.136900  1
  C  C3  1  0.043800  0.173000  0.142800  1
  C  C4  1  0.110900  0.344000  0.108400  1
  C  C5  1  -0.005100  0.432500  0.146400  1
  C  C6  1  0.118600  0.173100  0.113200  1
  C  C7  1  0.013200  0.085500  0.159600  1
  C  C8  1  0.151300  0.258200  0.096500  1
  C  C9  1  0.141500  0.431500  0.091300  1
  C  C10  1  0.026000  0.514600  0.130300  1
  C  C11  1  0.157300  0.084600  0.101900  1
  C  C12  1  0.051800  0.003100  0.147500  1
  C  C13  1  0.100700  0.512700  0.101700  1
  C  C14  1  0.125400  0.003400  0.117800  1
  C  C15  1  0.497300  0.741200  -0.346100  1
  C  C16  1  0.465200  0.655500  -0.363100  1
  C  C17  1  0.456200  0.827000  -0.357200  1
  C  C18  1  0.389100  0.656000  -0.391600  1
  C  C19  1  0.505100  0.567500  -0.353600  1
  C  C20  1  0.381400  0.826900  -0.386800  1
  C  C21  1  0.486800  0.914500  -0.340400  1
  C  C22  1  0.348700  0.741800  -0.403500  1
  C  C23  1  0.358500  0.568500  -0.408700  1
  C  C24  1  0.474000  0.485400  -0.369700  1
  C  C25  1  0.342700  0.915400  -0.398100  1
  C  C26  1  0.448200  0.996900  -0.352500  1
  C  C27  1  0.399300  0.487300  -0.398300  1
  C  C28  1  0.374600  0.996600  -0.382200  1
  C  C29  1  0.502700  0.241200  -0.153900  1
  C  C30  1  0.534800  0.155500  -0.136900  1
  C  C31  1  0.543800  0.327000  -0.142800  1
  C  C32  1  0.610900  0.156000  -0.108400  1
  C  C33  1  0.494900  0.067500  -0.146400  1
  C  C34  1  0.618600  0.326900  -0.113200  1
  C  C35  1  0.513200  0.414500  -0.159600  1
  C  C36  1  0.651300  0.241800  -0.096500  1
  C  C37  1  0.641500  0.068500  -0.091300  1
  C  C38  1  0.526000  -0.014600  -0.130300  1
  C  C39  1  0.657300  0.415400  -0.101900  1
  C  C40  1  0.551800  0.496900  -0.147500  1
  C  C41  1  0.600700  -0.012700  -0.101700  1
  C  C42  1  0.625400  0.496600  -0.117800  1
  C  C43  1  -0.002700  -0.241200  0.346100  1
  C  C44  1  -0.034800  -0.155500  0.363100  1
  C  C45  1  -0.043800  -0.327000  0.357200  1
  C  C46  1  -0.110900  -0.156000  0.391600  1
  C  C47  1  0.005100  -0.067500  0.353600  1
  C  C48  1  -0.118600  -0.326900  0.386800  1
  C  C49  1  -0.013200  -0.414500  0.340400  1
  C  C50  1  -0.151300  -0.241800  0.403500  1
  C  C51  1  -0.141500  -0.068500  0.408700  1
  C  C52  1  -0.026000  0.014600  0.369700  1
  C  C53  1  -0.157300  -0.415400  0.398100  1
  C  C54  1  -0.051800  -0.496900  0.352500  1
  C  C55  1  -0.100700  0.012700  0.398300  1
  C  C56  1  -0.125400  -0.496600  0.382200  1
  C  C57  1  -0.002700  0.741200  -0.153900  1
  C  C58  1  -0.034800  0.655500  -0.136900  1
  C  C59  1  -0.043800  0.827000  -0.142800  1
  C  C60  1  -0.110900  0.656000  -0.108400  1
  C  C61  1  0.005100  0.567500  -0.146400  1
  C  C62  1  -0.118600  0.826900  -0.113200  1
  C  C63  1  -0.013200  0.914500  -0.159600  1
  C  C64  1  -0.151300  0.741800  -0.096500  1
  C  C65  1  -0.141500  0.568500  -0.091300  1
  C  C66  1  -0.026000  0.485400  -0.130300  1
  C  C67  1  -0.157300  0.915400  -0.101900  1
  C  C68  1  -0.051800  0.996900  -0.147500  1
  C  C69  1  -0.100700  0.487300  -0.101700  1
  C  C70  1  -0.125400  0.996600  -0.117800  1
  C  C71  1  0.502700  0.258800  0.346100  1
  C  C72  1  0.534800  0.344500  0.363100  1
  C  C73  1  0.543800  0.173000  0.357200  1
  C  C74  1  0.610900  0.344000  0.391600  1
  C  C75  1  0.494900  0.432500  0.353600  1
  C  C76  1  0.618600  0.173100  0.386800  1
  C  C77  1  0.513200  0.085500  0.340400  1
  C  C78  1  0.651300  0.258200  0.403500  1
  C  C79  1  0.641500  0.431500  0.408700  1
  C  C80  1  0.526000  0.514600  0.369700  1
  C  C81  1  0.657300  0.084600  0.398100  1
  C  C82  1  0.551800  0.003100  0.352500  1
  C  C83  1  0.600700  0.512700  0.398300  1
  C  C84  1  0.625400  0.003400  0.382200  1
  C  C85  1  0.497300  -0.241200  0.153900  1
  C  C86  1  0.465200  -0.155500  0.136900  1
  C  C87  1  0.456200  -0.327000  0.142800  1
  C  C88  1  0.389100  -0.156000  0.108400  1
  C  C89  1  0.505100  -0.067500  0.146400  1
  C  C90  1  0.381400  -0.326900  0.113200  1
  C  C91  1  0.486800  -0.414500  0.159600  1
  C  C92  1  0.348700  -0.241800  0.096500  1
  C  C93  1  0.358500  -0.068500  0.091300  1
  C  C94  1  0.474000  0.014600  0.130300  1
  C  C95  1  0.342700  -0.415400  0.101900  1
  C  C96  1  0.448200  -0.496900  0.147500  1
  C  C97  1  0.399300  0.012700  0.101700  1
  C  C98  1  0.374600  -0.496600  0.117800  1
  C  C99  1  0.002700  0.241200  -0.346100  1
  C  C100  1  0.034800  0.155500  -0.363100  1
  C  C101  1  0.043800  0.327000  -0.357200  1
  C  C102  1  0.110900  0.156000  -0.391600  1
  C  C103  1  -0.005100  0.067500  -0.353600  1
  C  C104  1  0.118600  0.326900  -0.386800  1
  C  C105  1  0.013200  0.414500  -0.340400  1
  C  C106  1  0.151300  0.241800  -0.403500  1
  C  C107  1  0.141500  0.068500  -0.408700  1
  C  C108  1  0.026000  -0.014600  -0.369700  1
  C  C109  1  0.157300  0.415400  -0.398100  1
  C  C110  1  0.051800  0.496900  -0.352500  1
  C  C111  1  0.100700  -0.012700  -0.398300  1
  C  C112  1  0.125400  0.496600  -0.382200  1
  H  H113  1  -0.055229  0.258879  0.176138  1
  H  H114  1  -0.064272  0.437417  0.167735  1
  H  H115  1  -0.042700  0.081380  0.182945  1
  H  H116  1  0.208799  0.257649  0.074004  1
  H  H117  1  0.199228  0.436594  0.069066  1
  H  H118  1  -0.007885  0.579883  0.140015  1
  H  H119  1  0.214975  0.078636  0.079680  1
  H  H120  1  0.024261  -0.061970  0.161348  1
  H  H121  1  0.128146  0.576902  0.086965  1
  H  H122  1  0.158715  -0.061233  0.106775  1
  H  H123  1  0.555229  0.741121  -0.323862  1
  H  H124  1  0.564272  0.562583  -0.332265  1
  H  H125  1  0.542700  0.918620  -0.317055  1
  H  H126  1  0.291201  0.742351  -0.425996  1
  H  H127  1  0.300772  0.563406  -0.430934  1
  H  H128  1  0.507885  0.420117  -0.359985  1
  H  H129  1  0.285025  0.921364  -0.420320  1
  H  H130  1  0.475739  1.061970  -0.338652  1
  H  H131  1  0.371854  0.423098  -0.413035  1
  H  H132  1  0.341285  1.061233  -0.393225  1
  H  H133  1  0.444771  0.241121  -0.176138  1
  H  H134  1  0.435728  0.062583  -0.167735  1
  H  H135  1  0.457300  0.418620  -0.182945  1
  H  H136  1  0.708799  0.242351  -0.074004  1
  H  H137  1  0.699228  0.063406  -0.069066  1
  H  H138  1  0.492115  -0.079883  -0.140015  1
  H  H139  1  0.714975  0.421364  -0.079680  1
  H  H140  1  0.524261  0.561970  -0.161348  1
  H  H141  1  0.628146  -0.076902  -0.086965  1
  H  H142  1  0.658715  0.561233  -0.106775  1
  H  H143  1  0.055229  -0.241121  0.323862  1
  H  H144  1  0.064272  -0.062583  0.332265  1
  H  H145  1  0.042700  -0.418620  0.317055  1
  H  H146  1  -0.208799  -0.242351  0.425996  1
  H  H147  1  -0.199228  -0.063406  0.430934  1
  H  H148  1  0.007885  0.079883  0.359985  1
  H  H149  1  -0.214975  -0.421364  0.420320  1
  H  H150  1  -0.024261  -0.561970  0.338652  1
  H  H151  1  -0.128146  0.076902  0.413035  1
  H  H152  1  -0.158715  -0.561233  0.393225  1
  H  H153  1  0.055229  0.741121  -0.176138  1
  H  H154  1  0.064272  0.562583  -0.167735  1
  H  H155  1  0.042700  0.918620  -0.182945  1
  H  H156  1  -0.208799  0.742351  -0.074004  1
  H  H157  1  -0.199228  0.563406  -0.069066  1
  H  H158  1  0.007885  0.420117  -0.140015  1
  H  H159  1  -0.214975  0.921364  -0.079680  1
  H  H160  1  -0.024261  1.061970  -0.161348  1
  H  H161  1  -0.128146  0.423098  -0.086965  1
  H  H162  1  -0.158715  1.061233  -0.106775  1
  H  H163  1  0.444771  0.258879  0.323862  1
  H  H164  1  0.435728  0.437417  0.332265  1
  H  H165  1  0.457300  0.081380  0.317055  1
  H  H166  1  0.708799  0.257649  0.425996  1
  H  H167  1  0.699228  0.436594  0.430934  1
  H  H168  1  0.492115  0.579883  0.359985  1
  H  H169  1  0.714975  0.078636  0.420320  1
  H  H170  1  0.524261  -0.061970  0.338652  1
  H  H171  1  0.628146  0.576902  0.413035  1
  H  H172  1  0.658715  -0.061233  0.393225  1
  H  H173  1  0.555229  -0.241121  0.176138  1
  H  H174  1  0.564272  -0.062583  0.167735  1
  H  H175  1  0.542700  -0.418620  0.182945  1
  H  H176  1  0.291201  -0.242351  0.074004  1
  H  H177  1  0.300772  -0.063406  0.069066  1
  H  H178  1  0.507885  0.079883  0.140015  1
  H  H179  1  0.285025  -0.421364  0.079680  1
  H  H180  1  0.475739  -0.561970  0.161348  1
  H  H181  1  0.371854  0.076902  0.086965  1
  H  H182  1  0.341285  -0.561233  0.106775  1
  H  H183  1  -0.055229  0.241121  -0.323862  1
  H  H184  1  -0.064272  0.062583  -0.332265  1
  H  H185  1  -0.042700  0.418620  -0.317055  1
  H  H186  1  0.208799  0.242351  -0.425996  1
  H  H187  1  0.199228  0.063406  -0.430934  1
  H  H188  1  -0.007885  -0.079883  -0.359985  1
  H  H189  1  0.214975  0.421364  -0.420320  1
  H  H190  1  0.024261  0.561970  -0.338652  1
  H  H191  1  0.128146  -0.076902  -0.413035  1
  H  H192  1  0.158715  0.561233  -0.393225  1
