# generated using pymatgen
data_H7(C5S)3
_symmetry_space_group_name_H-M   'P 1'
_cell_length_a   9.76500000
_cell_length_b   10.19000000
_cell_length_c   14.85800000
_cell_angle_alpha   93.36000000
_cell_angle_beta   97.76000000
_cell_angle_gamma   110.32000000
_symmetry_Int_Tables_number   1
_chemical_formula_structural   H7(C5S)3
_chemical_formula_sum   'H14 C30 S6'
_cell_volume   1364.86336730
_cell_formula_units_Z   2
loop_
 _symmetry_equiv_pos_site_id
 _symmetry_equiv_pos_as_xyz
  1  'x, y, z'
loop_
 _atom_site_type_symbol
 _atom_site_label
 _atom_site_symmetry_multiplicity
 _atom_site_fract_x
 _atom_site_fract_y
 _atom_site_fract_z
 _atom_site_occupancy
  C  C1  1  0.517800  0.118000  0.558600  1
  C  C2  1  0.420800  0.084800  0.474200  1
  C  C3  1  0.596700  0.031400  0.586000  1
  C  C4  1  0.363500  0.198700  0.474800  1
  C  C5  1  0.403300  -0.031400  0.414000  1
  C  C6  1  0.407100  0.295400  0.545800  1
  C  C7  1  0.579200  -0.084800  0.525800  1
  C  C8  1  0.482200  -0.118000  0.441400  1
  C  C9  1  0.364200  0.415800  0.563000  1
  C  C10  1  0.636500  -0.198700  0.525200  1
  C  C11  1  0.258700  0.454000  0.511400  1
  C  C12  1  0.592900  -0.295400  0.454200  1
  C  C13  1  0.250000  0.581000  0.550100  1
  C  C14  1  0.348000  0.639900  0.633000  1
  C  C15  1  0.635800  -0.415800  0.437000  1
  C  C16  1  0.154000  0.648400  0.513500  1
  C  C17  1  0.353000  0.761300  0.681900  1
  C  C18  1  0.741300  -0.454000  0.488600  1
  C  C19  1  0.163900  0.771800  0.563100  1
  C  C20  1  0.262300  0.830600  0.646100  1
  C  C21  1  0.750000  -0.581000  0.449900  1
  C  C22  1  0.652000  -0.639900  0.367000  1
  C  C23  1  0.254500  0.963000  0.681300  1
  C  C24  1  0.846000  -0.648400  0.486500  1
  C  C25  1  0.647000  -0.761300  0.318100  1
  C  C26  1  0.147000  0.994000  0.628300  1
  C  C27  1  0.836100  -0.771800  0.436900  1
  C  C28  1  0.737700  -0.830600  0.353900  1
  C  C29  1  0.745500  -0.963000  0.318700  1
  C  C30  1  0.853000  -0.994000  0.371700  1
  H  H31  1  0.669925  0.053884  0.652541  1
  H  H32  1  0.284196  0.212219  0.419468  1
  H  H33  1  0.330075  -0.053884  0.347459  1
  H  H34  1  0.715804  -0.212219  0.580532  1
  H  H35  1  0.190443  0.391384  0.447726  1
  H  H36  1  0.075143  0.606700  0.449312  1
  H  H37  1  0.427466  0.801840  0.747807  1
  H  H38  1  0.809557  -0.391384  0.552274  1
  H  H39  1  0.323437  1.033112  0.742285  1
  H  H40  1  0.924857  -0.606700  0.550688  1
  H  H41  1  0.572534  -0.801840  0.252193  1
  H  H42  1  0.131031  1.089097  0.656155  1
  H  H43  1  0.676563  -1.033112  0.257715  1
  H  H44  1  0.868969  -1.089097  0.343845  1
  S  S45  1  0.538800  0.265960  0.628800  1
  S  S46  1  0.461200  -0.265960  0.371200  1
  S  S47  1  0.453000  0.534900  0.661380  1
  S  S48  1  0.547000  -0.534900  0.338620  1
  S  S49  1  0.063900  0.879700  0.532740  1
  S  S50  1  0.936100  -0.879700  0.467260  1
