# generated using pymatgen
data_H7C11
_symmetry_space_group_name_H-M   'P 1'
_cell_length_a   14.11500000
_cell_length_b   16.55300000
_cell_length_c   20.27500000
_cell_angle_alpha   95.46900000
_cell_angle_beta   94.29000000
_cell_angle_gamma   106.44800000
_symmetry_Int_Tables_number   1
_chemical_formula_structural   H7C11
_chemical_formula_sum   'H56 C88'
_cell_volume   4496.84518814
_cell_formula_units_Z   8
loop_
 _symmetry_equiv_pos_site_id
 _symmetry_equiv_pos_as_xyz
  1  'x, y, z'
loop_
 _atom_site_type_symbol
 _atom_site_label
 _atom_site_symmetry_multiplicity
 _atom_site_fract_x
 _atom_site_fract_y
 _atom_site_fract_z
 _atom_site_occupancy
  C  C1  1  0.419700  0.750160  0.439500  1
  C  C2  1  0.422300  0.683140  0.477380  1
  C  C3  1  0.331700  0.749470  0.400750  1
  C  C4  1  0.335100  0.610150  0.472760  1
  C  C5  1  0.507400  0.684340  0.518700  1
  C  C6  1  0.245000  0.676000  0.395800  1
  C  C7  1  0.325900  0.816650  0.365070  1
  C  C8  1  0.249000  0.606330  0.430470  1
  C  C9  1  0.339200  0.543410  0.510120  1
  C  C10  1  0.511200  0.617900  0.554820  1
  C  C11  1  0.158300  0.675400  0.355480  1
  C  C12  1  0.241100  0.816100  0.326480  1
  C  C13  1  0.423300  0.545170  0.550460  1
  C  C14  1  0.598000  0.617000  0.594940  1
  C  C15  1  0.154600  0.742900  0.321460  1
  C  C16  1  0.235900  0.884700  0.289300  1
  C  C17  1  0.428100  0.476600  0.587300  1
  C  C18  1  0.598900  0.549700  0.628250  1
  C  C19  1  0.067300  0.742800  0.279940  1
  C  C20  1  0.151800  0.881100  0.250500  1
  C  C21  1  0.512300  0.478600  0.624630  1
  C  C22  1  0.066000  0.809000  0.245780  1
  C  C23  1  0.580300  0.249840  0.560500  1
  C  C24  1  0.577700  0.316860  0.522620  1
  C  C25  1  0.668300  0.250530  0.599250  1
  C  C26  1  0.664900  0.389850  0.527240  1
  C  C27  1  0.492600  0.315660  0.481300  1
  C  C28  1  0.755000  0.324000  0.604200  1
  C  C29  1  0.674100  0.183350  0.634930  1
  C  C30  1  0.751000  0.393670  0.569530  1
  C  C31  1  0.660800  0.456590  0.489880  1
  C  C32  1  0.488800  0.382100  0.445180  1
  C  C33  1  0.841700  0.324600  0.644520  1
  C  C34  1  0.758900  0.183900  0.673520  1
  C  C35  1  0.576700  0.454830  0.449540  1
  C  C36  1  0.402000  0.383000  0.405060  1
  C  C37  1  0.845400  0.257100  0.678540  1
  C  C38  1  0.764100  0.115300  0.710700  1
  C  C39  1  0.571900  0.523400  0.412700  1
  C  C40  1  0.401100  0.450300  0.371750  1
  C  C41  1  0.932700  0.257200  0.720060  1
  C  C42  1  0.848200  0.118900  0.749500  1
  C  C43  1  0.487700  0.521400  0.375370  1
  C  C44  1  0.934000  0.191000  0.754220  1
  C  C45  1  0.089300  0.758370  0.066140  1
  C  C46  1  0.179200  0.763600  0.104350  1
  C  C47  1  0.081700  0.821580  0.025790  1
  C  C48  1  0.263400  0.837900  0.105700  1
  C  C49  1  0.188900  0.699700  0.142630  1
  C  C50  1  0.165900  0.895960  0.027240  1
  C  C51  1  -0.006300  0.816350  -0.014550  1
  C  C52  1  0.254300  0.903430  0.068470  1
  C  C53  1  0.351700  0.842700  0.144980  1
  C  C54  1  0.277200  0.705100  0.180680  1
  C  C55  1  0.157100  0.959310  -0.011820  1
  C  C56  1  -0.013700  0.879780  -0.053220  1
  C  C57  1  0.360900  0.778300  0.181560  1
  C  C58  1  0.286200  0.639500  0.220220  1
  C  C59  1  0.071000  0.953500  -0.051610  1
  C  C60  1  -0.103200  0.876000  -0.093170  1
  C  C61  1  0.451400  0.781700  0.220750  1
  C  C62  1  0.374100  0.646800  0.256360  1
  C  C63  1  0.061300  1.019010  -0.090260  1
  C  C64  1  -0.108900  0.940600  -0.128490  1
  C  C65  1  0.457100  0.718500  0.256690  1
  C  C66  1  -0.025600  1.013000  -0.127090  1
  C  C67  1  0.910700  1.241630  0.933860  1
  C  C68  1  0.820800  1.236400  0.895650  1
  C  C69  1  0.918300  1.178420  0.974210  1
  C  C70  1  0.736600  1.162100  0.894300  1
  C  C71  1  0.811100  1.300300  0.857370  1
  C  C72  1  0.834100  1.104040  0.972760  1
  C  C73  1  1.006300  1.183650  1.014550  1
  C  C74  1  0.745700  1.096570  0.931530  1
  C  C75  1  0.648300  1.157300  0.855020  1
  C  C76  1  0.722800  1.294900  0.819320  1
  C  C77  1  0.842900  1.040690  1.011820  1
  C  C78  1  1.013700  1.120220  1.053220  1
  C  C79  1  0.639100  1.221700  0.818440  1
  C  C80  1  0.713800  1.360500  0.779780  1
  C  C81  1  0.929000  1.046500  1.051610  1
  C  C82  1  1.103200  1.124000  1.093170  1
  C  C83  1  0.548600  1.218300  0.779250  1
  C  C84  1  0.625900  1.353200  0.743640  1
  C  C85  1  0.938700  0.980990  1.090260  1
  C  C86  1  1.108900  1.059400  1.128490  1
  C  C87  1  0.542900  1.281500  0.743310  1
  C  C88  1  1.025600  0.987000  1.127090  1
  H  H89  1  0.487188  0.803668  0.440188  1
  H  H90  1  0.573811  0.739592  0.522948  1
  H  H91  1  0.391155  0.872596  0.367474  1
  H  H92  1  0.184912  0.548963  0.424522  1
  H  H93  1  0.273900  0.487497  0.507688  1
  H  H94  1  0.091389  0.620501  0.350401  1
  H  H95  1  0.666757  0.670149  0.600391  1
  H  H96  1  0.298814  0.942272  0.290592  1
  H  H97  1  0.364324  0.419916  0.586906  1
  H  H98  1  0.668752  0.552734  0.657732  1
  H  H99  1  -0.001557  0.689716  0.274047  1
  H  H100  1  0.153157  0.935763  0.223304  1
  H  H101  1  0.510388  0.423560  0.651481  1
  H  H102  1  -0.003240  0.804310  0.214873  1
  H  H103  1  0.512812  0.196332  0.559812  1
  H  H104  1  0.426189  0.260408  0.477052  1
  H  H105  1  0.608845  0.127404  0.632526  1
  H  H106  1  0.815088  0.451037  0.575478  1
  H  H107  1  0.726100  0.512503  0.492312  1
  H  H108  1  0.908611  0.379499  0.649599  1
  H  H109  1  0.333243  0.329851  0.399609  1
  H  H110  1  0.701186  0.057728  0.709408  1
  H  H111  1  0.635676  0.580084  0.413094  1
  H  H112  1  0.331248  0.447266  0.342268  1
  H  H113  1  1.001557  0.310284  0.725953  1
  H  H114  1  0.846843  0.064237  0.776696  1
  H  H115  1  0.489612  0.576440  0.348519  1
  H  H116  1  1.003240  0.195690  0.785127  1
  H  H117  1  0.023734  0.703845  0.067845  1
  H  H118  1  0.124950  0.643316  0.142817  1
  H  H119  1  -0.071629  0.760699  -0.015904  1
  H  H120  1  0.317230  0.961360  0.071644  1
  H  H121  1  0.416261  0.899181  0.147184  1
  H  H122  1  0.220685  1.016199  -0.011220  1
  H  H123  1  0.224325  0.582331  0.222886  1
  H  H124  1  -0.170179  0.821346  -0.096871  1
  H  H125  1  0.519441  0.835138  0.223358  1
  H  H126  1  0.378063  0.594719  0.285320  1
  H  H127  1  0.123331  1.076477  -0.091722  1
  H  H128  1  -0.179943  0.934374  -0.157801  1
  H  H129  1  0.528434  0.725336  0.285859  1
  H  H130  1  -0.028471  1.065940  -0.155342  1
  H  H131  1  0.976266  1.296155  0.932155  1
  H  H132  1  0.875050  1.356684  0.857183  1
  H  H133  1  1.071629  1.239301  1.015904  1
  H  H134  1  0.682770  1.038640  0.928356  1
  H  H135  1  0.583739  1.100819  0.852816  1
  H  H136  1  0.779315  0.983801  1.011220  1
  H  H137  1  0.775675  1.417669  0.777114  1
  H  H138  1  1.170179  1.178654  1.096871  1
  H  H139  1  0.480559  1.164862  0.776642  1
  H  H140  1  0.621937  1.405281  0.714680  1
  H  H141  1  0.876669  0.923523  1.091722  1
  H  H142  1  1.179943  1.065626  1.157801  1
  H  H143  1  0.471566  1.274664  0.714141  1
  H  H144  1  1.028471  0.934060  1.155342  1
