# generated using pymatgen
data_H5C9S
_symmetry_space_group_name_H-M   'P 1'
_cell_length_a   7.53960000
_cell_length_b   8.28330000
_cell_length_c   16.04800000
_cell_angle_alpha   100.79300000
_cell_angle_beta   92.51900000
_cell_angle_gamma   98.29500000
_symmetry_Int_Tables_number   1
_chemical_formula_structural   H5C9S
_chemical_formula_sum   'H10 C18 S2'
_cell_volume   971.61304053
_cell_formula_units_Z   2
loop_
 _symmetry_equiv_pos_site_id
 _symmetry_equiv_pos_as_xyz
  1  'x, y, z'
loop_
 _atom_site_type_symbol
 _atom_site_label
 _atom_site_symmetry_multiplicity
 _atom_site_fract_x
 _atom_site_fract_y
 _atom_site_fract_z
 _atom_site_occupancy
  C  C1  1  0.260800  0.102300  0.039130  1
  C  C2  1  0.316200  0.051100  -0.044610  1
  C  C3  1  0.298800  0.264100  0.079990  1
  C  C4  1  0.262000  -0.120700  -0.075500  1
  C  C5  1  0.413300  0.164100  -0.084060  1
  C  C6  1  0.171800  -0.198800  -0.018400  1
  C  C7  1  0.397900  0.383700  0.040540  1
  C  C8  1  0.457100  0.331400  -0.042520  1
  C  C9  1  0.439900  0.551100  0.081120  1
  C  C10  1  0.560100  0.448900  -0.081120  1
  C  C11  1  0.542900  0.668600  0.042520  1
  C  C12  1  0.602100  0.616300  -0.040540  1
  C  C13  1  0.586700  0.835900  0.084060  1
  C  C14  1  0.701200  0.735900  -0.079990  1
  C  C15  1  0.683800  0.948900  0.044610  1
  C  C16  1  0.739200  0.897700  -0.039130  1
  C  C17  1  0.738000  1.120700  0.075500  1
  C  C18  1  0.828200  1.198800  0.018400  1
  H  H19  1  0.250363  0.297554  0.143656  1
  H  H20  1  0.287810  -0.187878  -0.138584  1
  H  H21  1  0.455479  0.121130  -0.148151  1
  H  H22  1  0.129548  -0.333032  -0.041864  1
  H  H23  1  0.391304  0.590853  0.144199  1
  H  H24  1  0.608696  0.409147  -0.144199  1
  H  H25  1  0.544521  0.878870  0.148151  1
  H  H26  1  0.749637  0.702446  -0.143656  1
  H  H27  1  0.712190  1.187878  0.138584  1
  H  H28  1  0.870452  1.333032  0.041864  1
  S  S29  1  0.148300  -0.065000  0.075740  1
  S  S30  1  0.851700  1.065000  -0.075740  1
