# generated using pymatgen
data_H7C11
_symmetry_space_group_name_H-M   'P 1'
_cell_length_a   8.22690000
_cell_length_b   15.44540000
_cell_length_c   18.74150000
_cell_angle_alpha   107.12300000
_cell_angle_beta   97.00100000
_cell_angle_gamma   90.79000000
_symmetry_Int_Tables_number   1
_chemical_formula_structural   H7C11
_chemical_formula_sum   'H28 C44'
_cell_volume   2255.81433458
_cell_formula_units_Z   4
loop_
 _symmetry_equiv_pos_site_id
 _symmetry_equiv_pos_as_xyz
  1  'x, y, z'
loop_
 _atom_site_type_symbol
 _atom_site_label
 _atom_site_symmetry_multiplicity
 _atom_site_fract_x
 _atom_site_fract_y
 _atom_site_fract_z
 _atom_site_occupancy
  C  C1  1  0.626400  0.260300  0.578320  1
  C  C2  1  0.516000  0.312300  0.545960  1
  C  C3  1  0.650300  0.169000  0.538840  1
  C  C4  1  0.429200  0.271820  0.471410  1
  C  C5  1  0.489300  0.402400  0.584000  1
  C  C6  1  0.565500  0.129140  0.464160  1
  C  C7  1  0.755100  0.115700  0.571320  1
  C  C8  1  0.457700  0.181300  0.430930  1
  C  C9  1  0.318800  0.324000  0.439870  1
  C  C10  1  0.383000  0.453700  0.552560  1
  C  C11  1  0.591600  0.038400  0.425230  1
  C  C12  1  0.778300  0.026600  0.533130  1
  C  C13  1  0.294800  0.412600  0.478390  1
  C  C14  1  0.356800  0.545700  0.590000  1
  C  C15  1  0.695300  -0.013300  0.457710  1
  C  C16  1  0.884200  -0.028700  0.564690  1
  C  C17  1  0.184500  0.466800  0.447500  1
  C  C18  1  0.251500  0.594100  0.558000  1
  C  C19  1  0.723200  -0.104900  0.419540  1
  C  C20  1  0.906700  -0.115300  0.526000  1
  C  C21  1  0.164300  0.553400  0.485400  1
  C  C22  1  0.824800  -0.154400  0.452400  1
  C  C23  1  0.373600  -0.260300  0.421680  1
  C  C24  1  0.484000  -0.312300  0.454040  1
  C  C25  1  0.349700  -0.169000  0.461160  1
  C  C26  1  0.570800  -0.271820  0.528590  1
  C  C27  1  0.510700  -0.402400  0.416000  1
  C  C28  1  0.434500  -0.129140  0.535840  1
  C  C29  1  0.244900  -0.115700  0.428680  1
  C  C30  1  0.542300  -0.181300  0.569070  1
  C  C31  1  0.681200  -0.324000  0.560130  1
  C  C32  1  0.617000  -0.453700  0.447440  1
  C  C33  1  0.408400  -0.038400  0.574770  1
  C  C34  1  0.221700  -0.026600  0.466870  1
  C  C35  1  0.705200  -0.412600  0.521610  1
  C  C36  1  0.643200  -0.545700  0.410000  1
  C  C37  1  0.304700  0.013300  0.542290  1
  C  C38  1  0.115800  0.028700  0.435310  1
  C  C39  1  0.815500  -0.466800  0.552500  1
  C  C40  1  0.748500  -0.594100  0.442000  1
  C  C41  1  0.276800  0.104900  0.580460  1
  C  C42  1  0.093300  0.115300  0.474000  1
  C  C43  1  0.835700  -0.553400  0.514600  1
  C  C44  1  0.175200  0.154400  0.547600  1
  H  H45  1  0.694349  0.291171  0.634753  1
  H  H46  1  0.554466  0.434164  0.640881  1
  H  H47  1  0.821050  0.144634  0.628437  1
  H  H48  1  0.395594  0.151257  0.373202  1
  H  H49  1  0.249342  0.294721  0.383548  1
  H  H50  1  0.529148  0.006981  0.367760  1
  H  H51  1  0.421014  0.581095  0.646372  1
  H  H52  1  0.951947  -0.003275  0.621755  1
  H  H53  1  0.111413  0.440518  0.391699  1
  H  H54  1  0.237100  0.664986  0.590300  1
  H  H55  1  0.663519  -0.138992  0.362021  1
  H  H56  1  0.990746  -0.153539  0.554104  1
  H  H57  1  0.077557  0.590472  0.457374  1
  H  H58  1  0.840509  -0.225050  0.419914  1
  H  H59  1  0.305651  -0.291171  0.365247  1
  H  H60  1  0.445534  -0.434164  0.359119  1
  H  H61  1  0.178950  -0.144634  0.371563  1
  H  H62  1  0.604406  -0.151257  0.626798  1
  H  H63  1  0.750658  -0.294721  0.616452  1
  H  H64  1  0.470852  -0.006981  0.632240  1
  H  H65  1  0.578986  -0.581095  0.353628  1
  H  H66  1  0.048053  0.003275  0.378245  1
  H  H67  1  0.888587  -0.440518  0.608301  1
  H  H68  1  0.762900  -0.664986  0.409700  1
  H  H69  1  0.336481  0.138992  0.637979  1
  H  H70  1  0.009254  0.153539  0.445896  1
  H  H71  1  0.922443  -0.590472  0.542626  1
  H  H72  1  0.159491  0.225050  0.580086  1
