# generated using pymatgen
data_H6C11S
_symmetry_space_group_name_H-M   'P 1'
_cell_length_a   18.92860000
_cell_length_b   17.37360000
_cell_length_c   14.62530000
_cell_angle_alpha   90.00000000
_cell_angle_beta   111.55400000
_cell_angle_gamma   90.00000000
_symmetry_Int_Tables_number   1
_chemical_formula_structural   H6C11S
_chemical_formula_sum   'H48 C88 S8'
_cell_volume   4473.31562575
_cell_formula_units_Z   8
loop_
 _symmetry_equiv_pos_site_id
 _symmetry_equiv_pos_as_xyz
  1  'x, y, z'
loop_
 _atom_site_type_symbol
 _atom_site_label
 _atom_site_symmetry_multiplicity
 _atom_site_fract_x
 _atom_site_fract_y
 _atom_site_fract_z
 _atom_site_occupancy
  C  C1  1  0.942800  0.439000  0.821700  1
  C  C2  1  1.017800  0.451400  0.885700  1
  C  C3  1  0.916700  0.521800  0.800000  1
  C  C4  1  0.918100  0.366500  0.798000  1
  C  C5  1  1.065100  0.389500  0.926900  1
  C  C6  1  0.946600  0.573100  0.825200  1
  C  C7  1  0.963100  0.298300  0.835200  1
  C  C8  1  1.039300  0.315100  0.902600  1
  C  C9  1  0.936800  0.224400  0.815400  1
  C  C10  1  1.084800  0.248600  0.944100  1
  C  C11  1  0.983100  0.157500  0.854400  1
  C  C12  1  1.060300  0.172100  0.921500  1
  C  C13  1  0.958700  0.084800  0.836000  1
  C  C14  1  1.104700  0.105600  0.960600  1
  C  C15  1  1.002500  0.018700  0.877300  1
  C  C16  1  1.078700  0.034500  0.940800  1
  C  C17  1  0.973900  -0.058500  0.852700  1
  C  C18  1  1.124800  -0.033500  0.980800  1
  C  C19  1  1.021200  -0.116500  0.896700  1
  C  C20  1  1.096500  -0.104600  0.959900  1
  C  C21  1  1.114600  -0.188000  0.992000  1
  C  C22  1  1.086600  -0.238500  0.959000  1
  C  C23  1  1.057200  0.939000  0.678300  1
  C  C24  1  0.982200  0.951400  0.614300  1
  C  C25  1  1.083300  1.021800  0.700000  1
  C  C26  1  1.081900  0.866500  0.702000  1
  C  C27  1  0.934900  0.889500  0.573100  1
  C  C28  1  1.053400  1.073100  0.674800  1
  C  C29  1  1.036900  0.798300  0.664800  1
  C  C30  1  0.960700  0.815100  0.597400  1
  C  C31  1  1.063200  0.724400  0.684600  1
  C  C32  1  0.915200  0.748600  0.555900  1
  C  C33  1  1.016900  0.657500  0.645600  1
  C  C34  1  0.939700  0.672100  0.578500  1
  C  C35  1  1.041300  0.584800  0.664000  1
  C  C36  1  0.895300  0.605600  0.539400  1
  C  C37  1  0.997500  0.518700  0.622700  1
  C  C38  1  0.921300  0.534500  0.559200  1
  C  C39  1  1.026100  0.441500  0.647300  1
  C  C40  1  0.875200  0.466500  0.519200  1
  C  C41  1  0.978800  0.383500  0.603300  1
  C  C42  1  0.903500  0.395400  0.540100  1
  C  C43  1  0.885400  0.312000  0.508000  1
  C  C44  1  0.913400  0.261500  0.541000  1
  C  C45  1  1.057200  -0.439000  1.178300  1
  C  C46  1  0.982200  -0.451400  1.114300  1
  C  C47  1  1.083300  -0.521800  1.200000  1
  C  C48  1  1.081900  -0.366500  1.202000  1
  C  C49  1  0.934900  -0.389500  1.073100  1
  C  C50  1  1.053400  -0.573100  1.174800  1
  C  C51  1  1.036900  -0.298300  1.164800  1
  C  C52  1  0.960700  -0.315100  1.097400  1
  C  C53  1  1.063200  -0.224400  1.184600  1
  C  C54  1  0.915200  -0.248600  1.055900  1
  C  C55  1  1.016900  -0.157500  1.145600  1
  C  C56  1  0.939700  -0.172100  1.078500  1
  C  C57  1  1.041300  -0.084800  1.164000  1
  C  C58  1  0.895300  -0.105600  1.039400  1
  C  C59  1  0.997500  -0.018700  1.122700  1
  C  C60  1  0.921300  -0.034500  1.059200  1
  C  C61  1  1.026100  0.058500  1.147300  1
  C  C62  1  0.875200  0.033500  1.019200  1
  C  C63  1  0.978800  0.116500  1.103300  1
  C  C64  1  0.903500  0.104600  1.040100  1
  C  C65  1  0.885400  0.188000  1.008000  1
  C  C66  1  0.913400  0.238500  1.041000  1
  C  C67  1  0.942800  0.061000  1.321700  1
  C  C68  1  1.017800  0.048600  1.385700  1
  C  C69  1  0.916700  -0.021800  1.300000  1
  C  C70  1  0.918100  0.133500  1.298000  1
  C  C71  1  1.065100  0.110500  1.426900  1
  C  C72  1  0.946600  -0.073100  1.325200  1
  C  C73  1  0.963100  0.201700  1.335200  1
  C  C74  1  1.039300  0.184900  1.402600  1
  C  C75  1  0.936800  0.275600  1.315400  1
  C  C76  1  1.084800  0.251400  1.444100  1
  C  C77  1  0.983100  0.342500  1.354400  1
  C  C78  1  1.060300  0.327900  1.421500  1
  C  C79  1  0.958700  0.415200  1.336000  1
  C  C80  1  1.104700  0.394400  1.460600  1
  C  C81  1  1.002500  0.481300  1.377300  1
  C  C82  1  1.078700  0.465500  1.440800  1
  C  C83  1  0.973900  0.558500  1.352700  1
  C  C84  1  1.124800  0.533500  1.480800  1
  C  C85  1  1.021200  0.616500  1.396700  1
  C  C86  1  1.096500  0.604600  1.459900  1
  C  C87  1  1.114600  0.688000  1.492000  1
  C  C88  1  1.086600  0.738500  1.459000  1
  H  H89  1  0.863866  0.551519  0.755752  1
  H  H90  1  0.858879  0.362846  0.746256  1
  H  H91  1  1.123351  0.399461  0.979095  1
  H  H92  1  0.906892  0.620152  0.790568  1
  H  H93  1  0.876849  0.218620  0.766845  1
  H  H94  1  1.142973  0.256910  0.997370  1
  H  H95  1  0.899646  0.079085  0.784306  1
  H  H96  1  1.164433  0.109503  1.010575  1
  H  H97  1  0.916597  -0.072996  0.800908  1
  H  H98  1  1.184843  -0.030998  1.029948  1
  H  H99  1  1.157701  -0.218760  1.052865  1
  H  H100  1  1.126936  -0.285944  0.989267  1
  H  H101  1  1.136134  1.051519  0.744248  1
  H  H102  1  1.141121  0.862846  0.753744  1
  H  H103  1  0.876649  0.899461  0.520905  1
  H  H104  1  1.093108  1.120152  0.709432  1
  H  H105  1  1.123151  0.718620  0.733155  1
  H  H106  1  0.857027  0.756910  0.502630  1
  H  H107  1  1.100354  0.579085  0.715694  1
  H  H108  1  0.835567  0.609503  0.489425  1
  H  H109  1  1.083403  0.427004  0.699092  1
  H  H110  1  0.815157  0.469002  0.470052  1
  H  H111  1  0.842299  0.281240  0.447135  1
  H  H112  1  0.873064  0.214056  0.510733  1
  H  H113  1  1.136134  -0.551519  1.244248  1
  H  H114  1  1.141121  -0.362846  1.253744  1
  H  H115  1  0.876649  -0.399461  1.020905  1
  H  H116  1  1.093108  -0.620152  1.209432  1
  H  H117  1  1.123151  -0.218620  1.233155  1
  H  H118  1  0.857027  -0.256910  1.002630  1
  H  H119  1  1.100354  -0.079085  1.215694  1
  H  H120  1  0.835567  -0.109503  0.989425  1
  H  H121  1  1.083403  0.072996  1.199092  1
  H  H122  1  0.815157  0.030998  0.970052  1
  H  H123  1  0.842299  0.218760  0.947135  1
  H  H124  1  0.873064  0.285944  1.010733  1
  H  H125  1  0.863866  -0.051519  1.255752  1
  H  H126  1  0.858879  0.137154  1.246256  1
  H  H127  1  1.123351  0.100539  1.479095  1
  H  H128  1  0.906892  -0.120152  1.290568  1
  H  H129  1  0.876849  0.281380  1.266845  1
  H  H130  1  1.142973  0.243090  1.497370  1
  H  H131  1  0.899646  0.420915  1.284306  1
  H  H132  1  1.164433  0.390497  1.510575  1
  H  H133  1  0.916597  0.572996  1.300908  1
  H  H134  1  1.184843  0.530998  1.529948  1
  H  H135  1  1.157701  0.718760  1.552865  1
  H  H136  1  1.126936  0.785944  1.489267  1
  S  S137  1  1.043000  0.545600  0.908400  1
  S  S138  1  0.990500  -0.208900  0.874900  1
  S  S139  1  0.957000  1.045600  0.591600  1
  S  S140  1  1.009500  0.291100  0.625100  1
  S  S141  1  0.957000  -0.545600  1.091600  1
  S  S142  1  1.009500  0.208900  1.125100  1
  S  S143  1  1.043000  -0.045600  1.408400  1
  S  S144  1  0.990500  0.708900  1.374900  1
