# generated using pymatgen
data_H6C9N
_symmetry_space_group_name_H-M   'P 1'
_cell_length_a   8.39920000
_cell_length_b   10.52600000
_cell_length_c   11.74600000
_cell_angle_alpha   68.85000000
_cell_angle_beta   80.94000000
_cell_angle_gamma   76.25000000
_symmetry_Int_Tables_number   1
_chemical_formula_structural   H6C9N
_chemical_formula_sum   'H12 C18 N2'
_cell_volume   937.80422721
_cell_formula_units_Z   2
loop_
 _symmetry_equiv_pos_site_id
 _symmetry_equiv_pos_as_xyz
  1  'x, y, z'
loop_
 _atom_site_type_symbol
 _atom_site_label
 _atom_site_symmetry_multiplicity
 _atom_site_fract_x
 _atom_site_fract_y
 _atom_site_fract_z
 _atom_site_occupancy
  C  C1  1  0.363500  0.441000  0.525900  1
  C  C2  1  0.389000  0.517100  0.597800  1
  C  C3  1  0.472400  0.420600  0.428400  1
  C  C4  1  0.256900  0.513800  0.690000  1
  C  C5  1  0.527600  0.579400  0.571600  1
  C  C6  1  0.153800  0.439400  0.675500  1
  C  C7  1  0.132700  0.323400  0.534300  1
  C  C8  1  0.611000  0.482900  0.402200  1
  C  C9  1  0.636500  0.559000  0.474100  1
  C  C10  1  0.004500  0.402900  0.736200  1
  C  C11  1  -0.009500  0.292500  0.593100  1
  C  C12  1  0.743100  0.486200  0.310000  1
  C  C13  1  -0.075300  0.332000  0.696500  1
  C  C14  1  0.846200  0.560600  0.324500  1
  C  C15  1  0.867300  0.676600  0.465700  1
  C  C16  1  0.995500  0.597100  0.263800  1
  C  C17  1  1.009500  0.707500  0.406900  1
  C  C18  1  1.075300  0.668000  0.303500  1
  H  H19  1  0.450456  0.359497  0.375720  1
  H  H20  1  0.237429  0.561537  0.761638  1
  H  H21  1  0.549544  0.640503  0.624280  1
  H  H22  1  0.179183  0.291008  0.454048  1
  H  H23  1  -0.051654  0.430694  0.817321  1
  H  H24  1  -0.071331  0.235525  0.557005  1
  H  H25  1  0.762571  0.438463  0.238362  1
  H  H26  1  -0.191795  0.306877  0.747467  1
  H  H27  1  0.820817  0.708992  0.545952  1
  H  H28  1  1.051654  0.569306  0.182679  1
  H  H29  1  1.071331  0.764475  0.442995  1
  H  H30  1  1.191795  0.693123  0.252533  1
  N  N31  1  0.217500  0.394300  0.574600  1
  N  N32  1  0.782500  0.605700  0.425400  1
