# generated using pymatgen
data_H7C11
_symmetry_space_group_name_H-M   'P 1'
_cell_length_a   8.57800000
_cell_length_b   17.62600000
_cell_length_c   14.57900000
_cell_angle_alpha   90.00000000
_cell_angle_beta   105.74500000
_cell_angle_gamma   90.00000000
_symmetry_Int_Tables_number   1
_chemical_formula_structural   H7C11
_chemical_formula_sum   'H28 C44'
_cell_volume   2121.57686195
_cell_formula_units_Z   4
loop_
 _symmetry_equiv_pos_site_id
 _symmetry_equiv_pos_as_xyz
  1  'x, y, z'
loop_
 _atom_site_type_symbol
 _atom_site_label
 _atom_site_symmetry_multiplicity
 _atom_site_fract_x
 _atom_site_fract_y
 _atom_site_fract_z
 _atom_site_occupancy
  C  C1  1  0.469600  0.421580  0.981640  1
  C  C2  1  0.369700  0.463530  1.026390  1
  C  C3  1  0.598500  0.456910  0.953900  1
  C  C4  1  0.401500  0.543090  1.046100  1
  C  C5  1  0.239100  0.429580  1.052850  1
  C  C6  1  0.630300  0.536470  0.973610  1
  C  C7  1  0.695800  0.416440  0.906630  1
  C  C8  1  0.530400  0.578420  1.018360  1
  C  C9  1  0.304200  0.583560  1.093370  1
  C  C10  1  0.144200  0.469830  1.098760  1
  C  C11  1  0.760900  0.570420  0.947150  1
  C  C12  1  0.821600  0.451050  0.879240  1
  C  C13  1  0.178400  0.548950  1.120760  1
  C  C14  1  0.013000  0.435920  1.127620  1
  C  C15  1  0.855800  0.530170  0.901240  1
  C  C16  1  0.917000  0.412070  0.827860  1
  C  C17  1  0.083000  0.587930  1.172140  1
  C  C18  1  -0.076300  0.474820  1.175670  1
  C  C19  1  0.987000  0.564080  0.872380  1
  C  C20  1  1.039200  0.446310  0.800160  1
  C  C21  1  -0.039200  0.553690  1.199840  1
  C  C22  1  1.076300  0.525180  0.824330  1
  C  C23  1  0.530400  0.921580  0.518360  1
  C  C24  1  0.630300  0.963530  0.473610  1
  C  C25  1  0.401500  0.956910  0.546100  1
  C  C26  1  0.598500  1.043090  0.453900  1
  C  C27  1  0.760900  0.929580  0.447150  1
  C  C28  1  0.369700  1.036470  0.526390  1
  C  C29  1  0.304200  0.916440  0.593370  1
  C  C30  1  0.469600  1.078420  0.481640  1
  C  C31  1  0.695800  1.083560  0.406630  1
  C  C32  1  0.855800  0.969830  0.401240  1
  C  C33  1  0.239100  1.070420  0.552850  1
  C  C34  1  0.178400  0.951050  0.620760  1
  C  C35  1  0.821600  1.048950  0.379240  1
  C  C36  1  0.987000  0.935920  0.372380  1
  C  C37  1  0.144200  1.030170  0.598760  1
  C  C38  1  0.083000  0.912070  0.672140  1
  C  C39  1  0.917000  1.087930  0.327860  1
  C  C40  1  1.076300  0.974820  0.324330  1
  C  C41  1  0.013000  1.064080  0.627620  1
  C  C42  1  -0.039200  0.946310  0.699840  1
  C  C43  1  1.039200  1.053690  0.300160  1
  C  C44  1  -0.076300  1.025180  0.675670  1
  H  H45  1  0.446728  0.360631  0.968225  1
  H  H46  1  0.210130  0.369368  1.037067  1
  H  H47  1  0.672792  0.355828  0.890581  1
  H  H48  1  0.553272  0.639369  1.031775  1
  H  H49  1  0.327208  0.644172  1.109419  1
  H  H50  1  0.789870  0.630632  0.962933  1
  H  H51  1  -0.021355  0.376221  1.111886  1
  H  H52  1  0.894994  0.351946  0.808415  1
  H  H53  1  0.105006  0.648054  1.191585  1
  H  H54  1  -0.174665  0.443715  1.194253  1
  H  H55  1  1.021355  0.623779  0.888114  1
  H  H56  1  1.105013  0.411795  0.760046  1
  H  H57  1  -0.105013  0.588205  1.239954  1
  H  H58  1  1.174665  0.556285  0.805747  1
  H  H59  1  0.553272  0.860631  0.531775  1
  H  H60  1  0.789870  0.869368  0.462933  1
  H  H61  1  0.327208  0.855828  0.609419  1
  H  H62  1  0.446728  1.139369  0.468225  1
  H  H63  1  0.672792  1.144172  0.390581  1
  H  H64  1  0.210130  1.130632  0.537067  1
  H  H65  1  1.021355  0.876221  0.388114  1
  H  H66  1  0.105006  0.851946  0.691585  1
  H  H67  1  0.894994  1.148054  0.308415  1
  H  H68  1  1.174665  0.943715  0.305747  1
  H  H69  1  -0.021355  1.123779  0.611886  1
  H  H70  1  -0.105013  0.911795  0.739954  1
  H  H71  1  1.105013  1.088205  0.260046  1
  H  H72  1  -0.174665  1.056285  0.694253  1
