# generated using pymatgen
data_H7C13O2
_symmetry_space_group_name_H-M   'P 1'
_cell_length_a   9.55500000
_cell_length_b   9.90900000
_cell_length_c   11.76000000
_cell_angle_alpha   73.45800000
_cell_angle_beta   83.93300000
_cell_angle_gamma   73.33200000
_symmetry_Int_Tables_number   1
_chemical_formula_structural   H7C13O2
_chemical_formula_sum   'H14 C26 O4'
_cell_volume   1022.16124529
_cell_formula_units_Z   2
loop_
 _symmetry_equiv_pos_site_id
 _symmetry_equiv_pos_as_xyz
  1  'x, y, z'
loop_
 _atom_site_type_symbol
 _atom_site_label
 _atom_site_symmetry_multiplicity
 _atom_site_fract_x
 _atom_site_fract_y
 _atom_site_fract_z
 _atom_site_occupancy
  C  C1  1  0.949500  0.051570  0.101900  1
  C  C2  1  1.080670  0.076360  0.042260  1
  C  C3  1  0.868970  -0.024890  0.062130  1
  C  C4  1  1.131030  0.024890  -0.062130  1
  C  C5  1  1.163740  0.149640  0.082120  1
  C  C6  1  0.919330  -0.076360  -0.042260  1
  C  C7  1  0.739410  -0.052710  0.120920  1
  C  C8  1  1.050500  -0.051570  -0.101900  1
  C  C9  1  1.260590  0.052710  -0.120920  1
  C  C10  1  1.290980  0.175610  0.023590  1
  C  C11  1  0.836260  -0.149640  -0.082120  1
  C  C12  1  0.659900  -0.126290  0.081960  1
  C  C13  1  1.340100  0.126290  -0.081960  1
  C  C14  1  1.376140  0.248950  0.064580  1
  C  C15  1  0.709020  -0.175610  -0.023590  1
  C  C16  1  0.529270  -0.155860  0.141890  1
  C  C17  1  1.470730  0.155860  -0.141890  1
  C  C18  1  1.499750  0.273190  0.005470  1
  C  C19  1  0.623860  -0.248950  -0.064580  1
  C  C20  1  0.453650  -0.226790  0.100680  1
  C  C21  1  1.546350  0.226790  -0.100680  1
  C  C22  1  0.500250  -0.273190  -0.005470  1
  C  C23  1  1.700690  0.368480  -0.018330  1
  C  C24  1  0.256760  -0.327650  0.116340  1
  C  C25  1  1.743240  0.327650  -0.116340  1
  C  C26  1  0.299310  -0.368480  0.018330  1
  H  H27  1  0.909529  0.092354  0.180366  1
  H  H28  1  1.127812  0.188122  0.162150  1
  H  H29  1  0.698510  -0.015316  0.200799  1
  H  H30  1  1.090471  -0.092354  -0.180366  1
  H  H31  1  1.301490  0.015316  -0.200799  1
  H  H32  1  0.872188  -0.188122  -0.162150  1
  H  H33  1  1.345372  0.288241  0.144682  1
  H  H34  1  0.485147  -0.122686  0.223013  1
  H  H35  1  1.514853  0.122686  -0.223013  1
  H  H36  1  0.654628  -0.288241  -0.144682  1
  H  H37  1  1.768321  0.427528  0.007357  1
  H  H38  1  0.158657  -0.357339  0.161346  1
  H  H39  1  1.841343  0.357339  -0.161346  1
  H  H40  1  0.231679  -0.427528  -0.007357  1
  O  O41  1  1.579890  0.340990  0.049960  1
  O  O42  1  0.328410  -0.252260  0.161960  1
  O  O43  1  1.671590  0.252260  -0.161960  1
  O  O44  1  0.420110  -0.340990  -0.049960  1
