# generated using pymatgen
data_H7(C6O)2
_symmetry_space_group_name_H-M   'P 1'
_cell_length_a   7.25640000
_cell_length_b   8.56840000
_cell_length_c   19.20300000
_cell_angle_alpha   89.03610000
_cell_angle_beta   80.49120000
_cell_angle_gamma   80.26590000
_symmetry_Int_Tables_number   1
_chemical_formula_structural   H7(C6O)2
_chemical_formula_sum   'H14 C24 O4'
_cell_volume   1160.52691596
_cell_formula_units_Z   2
loop_
 _symmetry_equiv_pos_site_id
 _symmetry_equiv_pos_as_xyz
  1  'x, y, z'
loop_
 _atom_site_type_symbol
 _atom_site_label
 _atom_site_symmetry_multiplicity
 _atom_site_fract_x
 _atom_site_fract_y
 _atom_site_fract_z
 _atom_site_occupancy
  C  C1  1  0.941700  0.853400  0.394670  1
  C  C2  1  0.885000  0.810100  0.465550  1
  C  C3  1  0.894400  1.000900  0.371340  1
  C  C4  1  0.781400  0.912300  0.514930  1
  C  C5  1  1.048000  0.593100  0.405920  1
  C  C6  1  0.780300  1.116900  0.421050  1
  C  C7  1  0.724800  1.072400  0.493210  1
  C  C8  1  0.721900  1.271200  0.401440  1
  C  C9  1  0.618600  1.184300  0.540910  1
  C  C10  1  0.610700  1.386400  0.449310  1
  C  C11  1  0.558300  1.342100  0.521490  1
  C  C12  1  0.550600  1.543900  0.429000  1
  C  C13  1  0.449400  1.456100  0.571000  1
  C  C14  1  0.441700  1.657900  0.478510  1
  C  C15  1  0.389300  1.613600  0.550690  1
  C  C16  1  0.381400  1.815700  0.459090  1
  C  C17  1  0.278100  1.728800  0.598560  1
  C  C18  1  0.275200  1.927600  0.506790  1
  C  C19  1  0.219700  1.883100  0.578950  1
  C  C20  1  0.218600  2.087700  0.485070  1
  C  C21  1  0.105600  1.999100  0.628660  1
  C  C22  1  0.115000  2.189900  0.534450  1
  C  C23  1  0.058300  2.146600  0.605330  1
  C  C24  1  -0.048000  2.406900  0.594080  1
  H  H25  1  0.945326  1.024914  0.315657  1
  H  H26  1  0.745784  0.868424  0.568808  1
  H  H27  1  0.910878  0.575009  0.393041  1
  H  H28  1  1.185122  0.611191  0.418799  1
  H  H29  1  0.765155  1.303232  0.346159  1
  H  H30  1  0.581095  1.146795  0.595754  1
  H  H31  1  0.589211  1.578317  0.373758  1
  H  H32  1  0.410789  1.421683  0.626242  1
  H  H33  1  0.418905  1.853205  0.404246  1
  H  H34  1  0.234845  1.696768  0.653841  1
  H  H35  1  0.254216  2.131576  0.431192  1
  H  H36  1  0.054674  1.975086  0.684343  1
  H  H37  1  0.089122  2.424991  0.606959  1
  H  H38  1  -0.185122  2.388809  0.581201  1
  O  O39  1  1.049370  0.724270  0.358340  1
  O  O40  1  0.955690  0.653510  0.474040  1
  O  O41  1  0.044310  2.346490  0.525960  1
  O  O42  1  -0.049370  2.275730  0.641660  1
