# generated using pymatgen
data_H7(C6O)2
_symmetry_space_group_name_H-M   'P 1'
_cell_length_a   8.07800000
_cell_length_b   14.58960000
_cell_length_c   16.04010000
_cell_angle_alpha   69.72100000
_cell_angle_beta   79.34700000
_cell_angle_gamma   88.95700000
_symmetry_Int_Tables_number   1
_chemical_formula_structural   H7(C6O)2
_chemical_formula_sum   'H28 C48 O8'
_cell_volume   1740.50740693
_cell_formula_units_Z   4
loop_
 _symmetry_equiv_pos_site_id
 _symmetry_equiv_pos_as_xyz
  1  'x, y, z'
loop_
 _atom_site_type_symbol
 _atom_site_label
 _atom_site_symmetry_multiplicity
 _atom_site_fract_x
 _atom_site_fract_y
 _atom_site_fract_z
 _atom_site_occupancy
  C  C1  1  0.815100  0.177090  0.979410  1
  C  C2  1  0.877400  0.209330  0.884810  1
  C  C3  1  0.906700  0.126480  1.040110  1
  C  C4  1  1.031700  0.190180  0.848710  1
  C  C5  1  0.615200  0.260750  0.908440  1
  C  C6  1  1.072900  0.103260  1.006380  1
  C  C7  1  1.135200  0.134030  0.909760  1
  C  C8  1  1.174900  0.050990  1.064450  1
  C  C9  1  1.292700  0.107350  0.879030  1
  C  C10  1  1.337100  0.025260  1.033570  1
  C  C11  1  1.397000  0.053230  0.937780  1
  C  C12  1  1.440900  -0.026930  1.094010  1
  C  C13  1  1.559100  0.026930  0.905990  1
  C  C14  1  1.603000  -0.053230  1.062220  1
  C  C15  1  1.662900  -0.025260  0.966430  1
  C  C16  1  1.707300  -0.107350  1.120970  1
  C  C17  1  1.825100  -0.050990  0.935550  1
  C  C18  1  1.864800  -0.134030  1.090240  1
  C  C19  1  1.927100  -0.103260  0.993620  1
  C  C20  1  1.968300  -0.190180  1.151290  1
  C  C21  1  2.093300  -0.126480  0.959890  1
  C  C22  1  2.122600  -0.209330  1.115190  1
  C  C23  1  2.184900  -0.177090  1.020590  1
  C  C24  1  2.384800  -0.260750  1.091560  1
  C  C25  1  0.828400  0.685840  0.951090  1
  C  C26  1  0.893800  0.705730  0.858000  1
  C  C27  1  0.914300  0.640200  1.016240  1
  C  C28  1  1.045800  0.677900  0.828280  1
  C  C29  1  0.640200  0.769500  0.870860  1
  C  C30  1  1.078700  0.609450  0.989450  1
  C  C31  1  1.144300  0.627340  0.894680  1
  C  C32  1  1.176900  0.563410  1.051940  1
  C  C33  1  1.300100  0.594110  0.870320  1
  C  C34  1  1.338200  0.531960  1.027370  1
  C  C35  1  1.400200  0.546210  0.933910  1
  C  C36  1  1.440000  0.487290  1.091820  1
  C  C37  1  1.560000  0.512710  0.908180  1
  C  C38  1  1.599800  0.453790  1.066090  1
  C  C39  1  1.661800  0.468040  0.972630  1
  C  C40  1  1.699900  0.405890  1.129680  1
  C  C41  1  1.823100  0.436590  0.948060  1
  C  C42  1  1.855700  0.372660  1.105320  1
  C  C43  1  1.921300  0.390550  1.010550  1
  C  C44  1  1.954200  0.322100  1.171720  1
  C  C45  1  2.085700  0.359800  0.983760  1
  C  C46  1  2.106200  0.294270  1.142000  1
  C  C47  1  2.171600  0.314160  1.048910  1
  C  C48  1  2.359800  0.230500  1.129140  1
  H  H49  1  0.849648  0.105533  1.112328  1
  H  H50  1  1.070477  0.218423  0.774552  1
  H  H51  1  0.560876  0.193887  0.904938  1
  H  H52  1  0.669524  0.327613  0.911942  1
  H  H53  1  1.125397  0.029166  1.137594  1
  H  H54  1  1.336503  0.129943  0.805356  1
  H  H55  1  1.394553  -0.047512  1.167331  1
  H  H56  1  1.605447  0.047512  0.832669  1
  H  H57  1  1.663497  -0.129943  1.194644  1
  H  H58  1  1.874603  -0.029166  0.862406  1
  H  H59  1  1.929523  -0.218423  1.225448  1
  H  H60  1  2.150352  -0.105533  0.887672  1
  H  H61  1  2.439124  -0.193887  1.095062  1
  H  H62  1  2.330476  -0.327613  1.088058  1
  H  H63  1  0.854156  0.628792  1.086681  1
  H  H64  1  1.086622  0.695244  0.754937  1
  H  H65  1  0.573142  0.703253  0.873626  1
  H  H66  1  0.707258  0.835747  0.868094  1
  H  H67  1  1.125020  0.551414  1.123520  1
  H  H68  1  1.345794  0.606145  0.798169  1
  H  H69  1  1.394043  0.478439  1.163276  1
  H  H70  1  1.605957  0.521561  0.836724  1
  H  H71  1  1.654206  0.393855  1.201831  1
  H  H72  1  1.874980  0.448586  0.876480  1
  H  H73  1  1.913378  0.304756  1.245063  1
  H  H74  1  2.145844  0.371208  0.913319  1
  H  H75  1  2.426858  0.296747  1.126374  1
  H  H76  1  2.292742  0.164253  1.131906  1
  O  O77  1  0.654350  0.205670  0.994770  1
  O  O78  1  0.756970  0.259420  0.840860  1
  O  O79  1  2.243030  -0.259420  1.159140  1
  O  O80  1  2.345650  -0.205670  1.005230  1
  O  O81  1  0.670490  0.720060  0.959940  1
  O  O82  1  0.778200  0.753490  0.808660  1
  O  O83  1  2.221800  0.246510  1.191340  1
  O  O84  1  2.329510  0.279940  1.040060  1
