# generated using pymatgen
data_H7C11
_symmetry_space_group_name_H-M   'P 1'
_cell_length_a   7.65800000
_cell_length_b   7.75020000
_cell_length_c   16.63540000
_cell_angle_alpha   89.88750000
_cell_angle_beta   79.37470000
_cell_angle_gamma   85.62750000
_symmetry_Int_Tables_number   1
_chemical_formula_structural   H7C11
_chemical_formula_sum   'H14 C22'
_cell_volume   967.50137777
_cell_formula_units_Z   2
loop_
 _symmetry_equiv_pos_site_id
 _symmetry_equiv_pos_as_xyz
  1  'x, y, z'
loop_
 _atom_site_type_symbol
 _atom_site_label
 _atom_site_symmetry_multiplicity
 _atom_site_fract_x
 _atom_site_fract_y
 _atom_site_fract_z
 _atom_site_occupancy
  C  C1  1  0.444700  0.937740  0.080560  1
  C  C2  1  0.323900  1.044290  0.043910  1
  C  C3  1  0.621400  0.893200  0.038270  1
  C  C4  1  0.378600  1.106800  -0.038270  1
  C  C5  1  0.148200  1.090050  0.085030  1
  C  C6  1  0.676100  0.955710  -0.043910  1
  C  C7  1  0.745600  0.791640  0.074390  1
  C  C8  1  0.555300  1.062260  -0.080560  1
  C  C9  1  0.254400  1.208360  -0.074390  1
  C  C10  1  0.027600  1.190200  0.048900  1
  C  C11  1  0.851800  0.909950  -0.085030  1
  C  C12  1  0.918800  0.750090  0.033670  1
  C  C13  1  0.081200  1.249910  -0.033670  1
  C  C14  1  -0.151500  1.235300  0.090830  1
  C  C15  1  0.972400  0.809800  -0.048900  1
  C  C16  1  1.046100  0.648600  0.070210  1
  C  C17  1  -0.046100  1.351400  -0.070210  1
  C  C18  1  -0.264900  1.331800  0.052800  1
  C  C19  1  1.151500  0.764700  -0.090830  1
  C  C20  1  1.212900  0.609600  0.028210  1
  C  C21  1  -0.212900  1.390400  -0.028210  1
  C  C22  1  1.264900  0.668200  -0.052800  1
  H  H23  1  0.400782  0.889022  0.142580  1
  H  H24  1  0.103423  1.045850  0.147807  1
  H  H25  1  0.705848  0.742956  0.136728  1
  H  H26  1  0.599218  1.110978  -0.142580  1
  H  H27  1  0.294152  1.257044  -0.136728  1
  H  H28  1  0.896577  0.954150  -0.147807  1
  H  H29  1  -0.203084  1.194944  0.153610  1
  H  H30  1  1.014638  0.598826  0.132768  1
  H  H31  1  -0.014638  1.401174  -0.132768  1
  H  H32  1  -0.400061  1.362771  0.087922  1
  H  H33  1  1.203084  0.805056  -0.153610  1
  H  H34  1  1.305165  0.531159  0.059562  1
  H  H35  1  -0.305165  1.468841  -0.059562  1
  H  H36  1  1.400061  0.637229  -0.087922  1
