# generated using pymatgen
data_H5C9O
_symmetry_space_group_name_H-M   'P 1'
_cell_length_a   6.37360000
_cell_length_b   6.98830000
_cell_length_c   17.16530000
_cell_angle_alpha   80.93200000
_cell_angle_beta   84.46900000
_cell_angle_gamma   78.07200000
_symmetry_Int_Tables_number   1
_chemical_formula_structural   H5C9O
_chemical_formula_sum   'H10 C18 O2'
_cell_volume   737.08326202
_cell_formula_units_Z   2
loop_
 _symmetry_equiv_pos_site_id
 _symmetry_equiv_pos_as_xyz
  1  'x, y, z'
loop_
 _atom_site_type_symbol
 _atom_site_label
 _atom_site_symmetry_multiplicity
 _atom_site_fract_x
 _atom_site_fract_y
 _atom_site_fract_z
 _atom_site_occupancy
  C  C1  1  0.055300  0.227000  0.475600  1
  C  C2  1  0.010500  0.278500  0.394600  1
  C  C3  1  -0.085000  0.280000  0.536400  1
  C  C4  1  0.197500  0.192400  0.350500  1
  C  C5  1  -0.189000  0.383000  0.375600  1
  C  C6  1  0.341800  0.105400  0.402900  1
  C  C7  1  -0.291000  0.389000  0.518300  1
  C  C8  1  -0.347000  0.440000  0.436900  1
  C  C9  1  -0.444000  0.441100  0.578800  1
  C  C10  1  -0.556000  0.558900  0.421200  1
  C  C11  1  -0.653000  0.560000  0.563100  1
  C  C12  1  -0.709000  0.611000  0.481700  1
  C  C13  1  -0.811000  0.617000  0.624400  1
  C  C14  1  -0.915000  0.720000  0.463600  1
  C  C15  1  -1.010500  0.721500  0.605400  1
  C  C16  1  -1.055300  0.773000  0.524400  1
  C  C17  1  -1.197500  0.807600  0.649500  1
  C  C18  1  -1.341800  0.894600  0.597100  1
  H  H19  1  -0.034367  0.236842  0.597206  1
  H  H20  1  0.225936  0.192999  0.286237  1
  H  H21  1  -0.221526  0.420228  0.312665  1
  H  H22  1  0.503935  0.029801  0.384573  1
  H  H23  1  -0.399131  0.387578  0.639854  1
  H  H24  1  -0.600869  0.612422  0.360146  1
  H  H25  1  -0.778474  0.579772  0.687335  1
  H  H26  1  -0.965633  0.763158  0.402794  1
  H  H27  1  -1.225936  0.807001  0.713763  1
  H  H28  1  -1.503935  0.970199  0.615427  1
  O  O29  1  0.266700  0.120700  0.480100  1
  O  O30  1  -1.266700  0.879300  0.519900  1
