# generated using pymatgen
data_H5C9S
_symmetry_space_group_name_H-M   'P 1'
_cell_length_a   7.11530000
_cell_length_b   7.23420000
_cell_length_c   16.62600000
_cell_angle_alpha   97.52200000
_cell_angle_beta   91.36100000
_cell_angle_gamma   107.49100000
_symmetry_Int_Tables_number   1
_chemical_formula_structural   H5C9S
_chemical_formula_sum   'H10 C18 S2'
_cell_volume   807.40235048
_cell_formula_units_Z   2
loop_
 _symmetry_equiv_pos_site_id
 _symmetry_equiv_pos_as_xyz
  1  'x, y, z'
loop_
 _atom_site_type_symbol
 _atom_site_label
 _atom_site_symmetry_multiplicity
 _atom_site_fract_x
 _atom_site_fract_y
 _atom_site_fract_z
 _atom_site_occupancy
  C  C1  1  0.549400  0.659400  0.889600  1
  C  C2  1  0.478500  0.703100  0.965700  1
  C  C3  1  0.738500  0.740200  0.875800  1
  C  C4  1  0.271000  0.617000  0.963800  1
  C  C5  1  0.599300  0.828200  1.026200  1
  C  C6  1  0.201400  0.493000  0.896300  1
  C  C7  1  0.870000  0.869900  0.936600  1
  C  C8  1  0.799600  0.909600  1.013900  1
  C  C9  1  1.067000  0.960700  0.923800  1
  C  C10  1  0.933000  1.039300  1.076200  1
  C  C11  1  1.200400  1.090400  0.986100  1
  C  C12  1  1.130000  1.130100  1.063400  1
  C  C13  1  1.400700  1.171800  0.973800  1
  C  C14  1  1.261500  1.259800  1.124200  1
  C  C15  1  1.521500  1.296900  1.034300  1
  C  C16  1  1.450600  1.340600  1.110400  1
  C  C17  1  1.729000  1.383000  1.036200  1
  C  C18  1  1.798600  1.507000  1.103700  1
  H  H19  1  0.785364  0.700414  0.815104  1
  H  H20  1  0.172294  0.644128  1.010755  1
  H  H21  1  0.536266  0.862849  1.083921  1
  H  H22  1  0.045268  0.411645  0.901035  1
  H  H23  1  1.118374  0.929278  0.863136  1
  H  H24  1  0.881626  1.070722  1.136864  1
  H  H25  1  1.463734  1.137151  0.916079  1
  H  H26  1  1.214636  1.299586  1.184896  1
  H  H27  1  1.827706  1.355872  0.989245  1
  H  H28  1  1.954732  1.588355  1.098965  1
  S  S29  1  0.369200  0.492700  0.821600  1
  S  S30  1  1.630800  1.507300  1.178400  1
