# generated using pymatgen
data_H7C11
_symmetry_space_group_name_H-M   'P 1'
_cell_length_a   11.29210000
_cell_length_b   11.31980000
_cell_length_c   17.35120000
_cell_angle_alpha   108.92460000
_cell_angle_beta   95.16660000
_cell_angle_gamma   91.80530000
_symmetry_Int_Tables_number   1
_chemical_formula_structural   H7C11
_chemical_formula_sum   'H28 C44'
_cell_volume   2085.15204289
_cell_formula_units_Z   4
loop_
 _symmetry_equiv_pos_site_id
 _symmetry_equiv_pos_as_xyz
  1  'x, y, z'
loop_
 _atom_site_type_symbol
 _atom_site_label
 _atom_site_symmetry_multiplicity
 _atom_site_fract_x
 _atom_site_fract_y
 _atom_site_fract_z
 _atom_site_occupancy
  C  C1  1  0.356680  0.363460  0.626530  1
  C  C2  1  0.444090  0.290420  0.582580  1
  C  C3  1  0.288880  0.442380  0.593550  1
  C  C4  1  0.465240  0.298930  0.503880  1
  C  C5  1  0.508540  0.206550  0.611720  1
  C  C6  1  0.307900  0.448580  0.514270  1
  C  C7  1  0.201330  0.515410  0.636110  1
  C  C8  1  0.395530  0.376330  0.470290  1
  C  C9  1  0.552870  0.227270  0.461520  1
  C  C10  1  0.591510  0.131950  0.568020  1
  C  C11  1  0.236930  0.524860  0.481430  1
  C  C12  1  0.131460  0.589540  0.603640  1
  C  C13  1  0.615650  0.144070  0.490270  1
  C  C14  1  0.652880  0.041640  0.596690  1
  C  C15  1  0.149640  0.594820  0.523240  1
  C  C16  1  0.040720  0.662150  0.647660  1
  C  C17  1  0.703010  0.068360  0.444050  1
  C  C18  1  0.733210  -0.027400  0.550470  1
  C  C19  1  0.076360  0.671240  0.488220  1
  C  C20  1  -0.026760  0.729800  0.610970  1
  C  C21  1  0.758580  -0.013300  0.475050  1
  C  C22  1  -0.009200  0.734900  0.532000  1
  C  C23  1  0.643320  0.636540  0.373470  1
  C  C24  1  0.555910  0.709580  0.417420  1
  C  C25  1  0.711120  0.557620  0.406450  1
  C  C26  1  0.534760  0.701070  0.496120  1
  C  C27  1  0.491460  0.793450  0.388280  1
  C  C28  1  0.692100  0.551420  0.485730  1
  C  C29  1  0.798670  0.484590  0.363890  1
  C  C30  1  0.604470  0.623670  0.529710  1
  C  C31  1  0.447130  0.772730  0.538480  1
  C  C32  1  0.408490  0.868050  0.431980  1
  C  C33  1  0.763070  0.475140  0.518570  1
  C  C34  1  0.868540  0.410460  0.396360  1
  C  C35  1  0.384350  0.855930  0.509730  1
  C  C36  1  0.347120  0.958360  0.403310  1
  C  C37  1  0.850360  0.405180  0.476760  1
  C  C38  1  0.959280  0.337850  0.352340  1
  C  C39  1  0.296990  0.931640  0.555950  1
  C  C40  1  0.266790  1.027400  0.449530  1
  C  C41  1  0.923640  0.328760  0.511780  1
  C  C42  1  1.026760  0.270200  0.389030  1
  C  C43  1  0.241420  1.013300  0.524950  1
  C  C44  1  1.009200  0.265100  0.468000  1
  H  H45  1  0.341214  0.358822  0.687205  1
  H  H46  1  0.493289  0.198916  0.671702  1
  H  H47  1  0.186802  0.514506  0.697763  1
  H  H48  1  0.409628  0.380382  0.409266  1
  H  H49  1  0.573343  0.236777  0.402936  1
  H  H50  1  0.250240  0.530014  0.420547  1
  H  H51  1  0.638285  0.025267  0.654337  1
  H  H52  1  0.022848  0.665961  0.709675  1
  H  H53  1  0.727302  0.072907  0.385043  1
  H  H54  1  0.778059  -0.095245  0.574298  1
  H  H55  1  0.085748  0.680994  0.427981  1
  H  H56  1  -0.096591  0.781163  0.645689  1
  H  H57  1  0.824890  -0.068648  0.438659  1
  H  H58  1  -0.064498  0.790816  0.503383  1
  H  H59  1  0.658786  0.641178  0.312795  1
  H  H60  1  0.506711  0.801084  0.328298  1
  H  H61  1  0.813198  0.485494  0.302237  1
  H  H62  1  0.590372  0.619618  0.590734  1
  H  H63  1  0.426657  0.763223  0.597064  1
  H  H64  1  0.749760  0.469986  0.579453  1
  H  H65  1  0.361715  0.974733  0.345663  1
  H  H66  1  0.977152  0.334039  0.290325  1
  H  H67  1  0.272698  0.927093  0.614957  1
  H  H68  1  0.221941  1.095245  0.425702  1
  H  H69  1  0.914252  0.319006  0.572019  1
  H  H70  1  1.096591  0.218837  0.354311  1
  H  H71  1  0.175110  1.068648  0.561341  1
  H  H72  1  1.064498  0.209184  0.496617  1
