# generated using pymatgen
data_H5C9S
_symmetry_space_group_name_H-M   'P 1'
_cell_length_a   8.39670000
_cell_length_b   8.74410000
_cell_length_c   16.68260000
_cell_angle_alpha   91.93600000
_cell_angle_beta   103.44700000
_cell_angle_gamma   109.80700000
_symmetry_Int_Tables_number   1
_chemical_formula_structural   H5C9S
_chemical_formula_sum   'H10 C18 S2'
_cell_volume   1112.29136682
_cell_formula_units_Z   2
loop_
 _symmetry_equiv_pos_site_id
 _symmetry_equiv_pos_as_xyz
  1  'x, y, z'
loop_
 _atom_site_type_symbol
 _atom_site_label
 _atom_site_symmetry_multiplicity
 _atom_site_fract_x
 _atom_site_fract_y
 _atom_site_fract_z
 _atom_site_occupancy
  C  C1  1  0.042800  0.290200  0.513020  1
  C  C2  1  0.045600  0.194000  0.442370  1
  C  C3  1  0.186600  0.420400  0.553950  1
  C  C4  1  -0.121500  0.062400  0.413500  1
  C  C5  1  0.194100  0.232900  0.414590  1
  C  C6  1  -0.237000  0.058100  0.458000  1
  C  C7  1  0.343000  0.462400  0.527060  1
  C  C8  1  0.347100  0.366400  0.456350  1
  C  C9  1  0.496300  0.594100  0.569430  1
  C  C10  1  0.503700  0.405900  0.430570  1
  C  C11  1  0.652900  0.633600  0.543650  1
  C  C12  1  0.657000  0.537600  0.472940  1
  C  C13  1  0.805900  0.767100  0.585410  1
  C  C14  1  0.813400  0.579600  0.446050  1
  C  C15  1  0.954400  0.806000  0.557630  1
  C  C16  1  0.957200  0.709800  0.486980  1
  C  C17  1  1.121500  0.937600  0.586500  1
  C  C18  1  1.237000  0.941900  0.542000  1
  H  H19  1  0.176644  0.490090  0.607537  1
  H  H20  1  -0.159261  -0.030759  0.359807  1
  H  H21  1  0.190532  0.157901  0.359459  1
  H  H22  1  -0.360925  -0.044963  0.432228  1
  H  H23  1  0.493674  0.667462  0.623656  1
  H  H24  1  0.506326  0.332538  0.376344  1
  H  H25  1  0.809468  0.842099  0.640541  1
  H  H26  1  0.823356  0.509910  0.392463  1
  H  H27  1  1.159261  1.030759  0.640193  1
  H  H28  1  1.360925  1.044963  0.567772  1
  S  S29  1  -0.161460  0.212680  0.542230  1
  S  S30  1  1.161460  0.787320  0.457770  1
