# generated using pymatgen
data_H6C11S
_symmetry_space_group_name_H-M   'P 1'
_cell_length_a   17.20300000
_cell_length_b   9.26690000
_cell_length_c   29.68990000
_cell_angle_alpha   90.00000000
_cell_angle_beta   92.91700000
_cell_angle_gamma   90.00000000
_symmetry_Int_Tables_number   1
_chemical_formula_structural   H6C11S
_chemical_formula_sum   'H48 C88 S8'
_cell_volume   4726.98605762
_cell_formula_units_Z   8
loop_
 _symmetry_equiv_pos_site_id
 _symmetry_equiv_pos_as_xyz
  1  'x, y, z'
loop_
 _atom_site_type_symbol
 _atom_site_label
 _atom_site_symmetry_multiplicity
 _atom_site_fract_x
 _atom_site_fract_y
 _atom_site_fract_z
 _atom_site_occupancy
  C  C1  1  0.533400  0.794800  0.715600  1
  C  C2  1  0.614500  0.758600  0.717700  1
  C  C3  1  0.485200  0.744700  0.681600  1
  C  C4  1  0.652900  0.824000  0.757100  1
  C  C5  1  0.643800  0.670800  0.685900  1
  C  C6  1  0.604800  0.912000  0.781800  1
  C  C7  1  0.513200  0.650300  0.648500  1
  C  C8  1  0.594100  0.613700  0.650600  1
  C  C9  1  0.462800  0.588700  0.614800  1
  C  C10  1  0.623200  0.520600  0.617500  1
  C  C11  1  0.490600  0.490500  0.582400  1
  C  C12  1  0.572300  0.457600  0.583900  1
  C  C13  1  0.440700  0.425300  0.549800  1
  C  C14  1  0.599000  0.358700  0.552700  1
  C  C15  1  0.468000  0.325700  0.519100  1
  C  C16  1  0.550000  0.290500  0.520800  1
  C  C17  1  0.417700  0.257500  0.486100  1
  C  C18  1  0.577900  0.187500  0.490000  1
  C  C19  1  0.446900  0.160500  0.456900  1
  C  C20  1  0.527800  0.126200  0.458400  1
  C  C21  1  0.545000  0.022000  0.424200  1
  C  C22  1  0.482100  -0.015000  0.398900  1
  C  C23  1  0.466600  1.294800  0.784400  1
  C  C24  1  0.385500  1.258600  0.782300  1
  C  C25  1  0.514800  1.244700  0.818400  1
  C  C26  1  0.347100  1.324000  0.742900  1
  C  C27  1  0.356200  1.170800  0.814100  1
  C  C28  1  0.395200  1.412000  0.718200  1
  C  C29  1  0.486800  1.150300  0.851500  1
  C  C30  1  0.405900  1.113700  0.849400  1
  C  C31  1  0.537200  1.088700  0.885200  1
  C  C32  1  0.376800  1.020600  0.882500  1
  C  C33  1  0.509400  0.990500  0.917600  1
  C  C34  1  0.427700  0.957600  0.916100  1
  C  C35  1  0.559300  0.925300  0.950200  1
  C  C36  1  0.401000  0.858700  0.947300  1
  C  C37  1  0.532000  0.825700  0.980900  1
  C  C38  1  0.450000  0.790500  0.979200  1
  C  C39  1  0.582300  0.757500  1.013900  1
  C  C40  1  0.422100  0.687500  1.010000  1
  C  C41  1  0.553100  0.660500  1.043100  1
  C  C42  1  0.472200  0.626200  1.041600  1
  C  C43  1  0.455000  0.522000  1.075800  1
  C  C44  1  0.517900  0.485000  1.101100  1
  C  C45  1  0.466600  0.205200  0.284400  1
  C  C46  1  0.385500  0.241400  0.282300  1
  C  C47  1  0.514800  0.255300  0.318400  1
  C  C48  1  0.347100  0.176000  0.242900  1
  C  C49  1  0.356200  0.329200  0.314100  1
  C  C50  1  0.395200  0.088000  0.218200  1
  C  C51  1  0.486800  0.349700  0.351500  1
  C  C52  1  0.405900  0.386300  0.349400  1
  C  C53  1  0.537200  0.411300  0.385200  1
  C  C54  1  0.376800  0.479400  0.382500  1
  C  C55  1  0.509400  0.509500  0.417600  1
  C  C56  1  0.427700  0.542400  0.416100  1
  C  C57  1  0.559300  0.574700  0.450200  1
  C  C58  1  0.401000  0.641300  0.447300  1
  C  C59  1  0.532000  0.674300  0.480900  1
  C  C60  1  0.450000  0.709500  0.479200  1
  C  C61  1  0.582300  0.742500  0.513900  1
  C  C62  1  0.422100  0.812500  0.510000  1
  C  C63  1  0.553100  0.839500  0.543100  1
  C  C64  1  0.472200  0.873800  0.541600  1
  C  C65  1  0.455000  0.978000  0.575800  1
  C  C66  1  0.517900  1.015000  0.601100  1
  C  C67  1  0.533400  -0.294800  0.215600  1
  C  C68  1  0.614500  -0.258600  0.217700  1
  C  C69  1  0.485200  -0.244700  0.181600  1
  C  C70  1  0.652900  -0.324000  0.257100  1
  C  C71  1  0.643800  -0.170800  0.185900  1
  C  C72  1  0.604800  -0.412000  0.281800  1
  C  C73  1  0.513200  -0.150300  0.148500  1
  C  C74  1  0.594100  -0.113700  0.150600  1
  C  C75  1  0.462800  -0.088700  0.114800  1
  C  C76  1  0.623200  -0.020600  0.117500  1
  C  C77  1  0.490600  0.009500  0.082400  1
  C  C78  1  0.572300  0.042400  0.083900  1
  C  C79  1  0.440700  0.074700  0.049800  1
  C  C80  1  0.599000  0.141300  0.052700  1
  C  C81  1  0.468000  0.174300  0.019100  1
  C  C82  1  0.550000  0.209500  0.020800  1
  C  C83  1  0.417700  0.242500  -0.013900  1
  C  C84  1  0.577900  0.312500  -0.010000  1
  C  C85  1  0.446900  0.339500  -0.043100  1
  C  C86  1  0.527800  0.373800  -0.041600  1
  C  C87  1  0.545000  0.478000  -0.075800  1
  C  C88  1  0.482100  0.515000  -0.101100  1
  H  H89  1  0.424134  0.780202  0.680879  1
  H  H90  1  0.714543  0.807894  0.767576  1
  H  H91  1  0.706444  0.646456  0.688675  1
  H  H92  1  0.634478  0.969436  0.810177  1
  H  H93  1  0.400737  0.617748  0.613768  1
  H  H94  1  0.685898  0.497010  0.617892  1
  H  H95  1  0.378450  0.453039  0.548268  1
  H  H96  1  0.661510  0.333349  0.553278  1
  H  H97  1  0.354893  0.280253  0.483098  1
  H  H98  1  0.639387  0.154628  0.490631  1
  H  H99  1  0.601952  -0.025780  0.417872  1
  H  H100  1  0.497764  -0.092336  0.372756  1
  H  H101  1  0.575866  1.280202  0.819121  1
  H  H102  1  0.285457  1.307894  0.732424  1
  H  H103  1  0.293556  1.146456  0.811325  1
  H  H104  1  0.365522  1.469436  0.689823  1
  H  H105  1  0.599263  1.117748  0.886232  1
  H  H106  1  0.314102  0.997010  0.882108  1
  H  H107  1  0.621550  0.953039  0.951732  1
  H  H108  1  0.338490  0.833349  0.946722  1
  H  H109  1  0.645107  0.780253  1.016902  1
  H  H110  1  0.360613  0.654628  1.009369  1
  H  H111  1  0.398048  0.474220  1.082128  1
  H  H112  1  0.502236  0.407664  1.127244  1
  H  H113  1  0.575866  0.219798  0.319121  1
  H  H114  1  0.285457  0.192106  0.232424  1
  H  H115  1  0.293556  0.353544  0.311325  1
  H  H116  1  0.365522  0.030564  0.189823  1
  H  H117  1  0.599263  0.382252  0.386232  1
  H  H118  1  0.314102  0.502990  0.382108  1
  H  H119  1  0.621550  0.546961  0.451732  1
  H  H120  1  0.338490  0.666651  0.446722  1
  H  H121  1  0.645107  0.719747  0.516902  1
  H  H122  1  0.360613  0.845372  0.509369  1
  H  H123  1  0.398048  1.025780  0.582128  1
  H  H124  1  0.502236  1.092336  0.627244  1
  H  H125  1  0.424134  -0.280202  0.180879  1
  H  H126  1  0.714543  -0.307894  0.267576  1
  H  H127  1  0.706444  -0.146456  0.188675  1
  H  H128  1  0.634478  -0.469436  0.310177  1
  H  H129  1  0.400737  -0.117748  0.113768  1
  H  H130  1  0.685898  0.002990  0.117892  1
  H  H131  1  0.378450  0.046961  0.048268  1
  H  H132  1  0.661510  0.166651  0.053278  1
  H  H133  1  0.354893  0.219747  -0.016902  1
  H  H134  1  0.639387  0.345372  -0.009369  1
  H  H135  1  0.601952  0.525780  -0.082128  1
  H  H136  1  0.497764  0.592336  -0.127244  1
  S  S137  1  0.508800  0.907300  0.760700  1
  S  S138  1  0.395300  0.066000  0.413490  1
  S  S139  1  0.491200  1.407300  0.739300  1
  S  S140  1  0.604700  0.566000  1.086510  1
  S  S141  1  0.491200  0.092700  0.239300  1
  S  S142  1  0.604700  0.934000  0.586510  1
  S  S143  1  0.508800  -0.407300  0.260700  1
  S  S144  1  0.395300  0.434000  -0.086510  1
