# generated using pymatgen
data_H7C11
_symmetry_space_group_name_H-M   'P 1'
_cell_length_a   7.67580000
_cell_length_b   10.43180000
_cell_length_c   12.02990000
_cell_angle_alpha   67.15700000
_cell_angle_beta   88.89900000
_cell_angle_gamma   76.48200000
_symmetry_Int_Tables_number   1
_chemical_formula_structural   H7C11
_chemical_formula_sum   'H14 C22'
_cell_volume   860.36903056
_cell_formula_units_Z   2
loop_
 _symmetry_equiv_pos_site_id
 _symmetry_equiv_pos_as_xyz
  1  'x, y, z'
loop_
 _atom_site_type_symbol
 _atom_site_label
 _atom_site_symmetry_multiplicity
 _atom_site_fract_x
 _atom_site_fract_y
 _atom_site_fract_z
 _atom_site_occupancy
  C  C1  1  0.488000  0.647570  0.427460  1
  C  C2  1  0.352900  0.583370  0.410630  1
  C  C3  1  0.634600  0.566530  0.516420  1
  C  C4  1  0.365400  0.433470  0.483580  1
  C  C5  1  0.204400  0.661900  0.325050  1
  C  C6  1  0.647100  0.416630  0.589370  1
  C  C7  1  0.770700  0.627830  0.534330  1
  C  C8  1  0.512000  0.352430  0.572540  1
  C  C9  1  0.229300  0.372170  0.465670  1
  C  C10  1  0.069900  0.600310  0.309260  1
  C  C11  1  0.795600  0.338100  0.674950  1
  C  C12  1  0.916900  0.549270  0.617810  1
  C  C13  1  0.083100  0.450730  0.382190  1
  C  C14  1  -0.082100  0.679180  0.223570  1
  C  C15  1  0.930100  0.399690  0.690740  1
  C  C16  1  1.057600  0.611320  0.633490  1
  C  C17  1  -0.057600  0.388680  0.366510  1
  C  C18  1  -0.212700  0.616140  0.212430  1
  C  C19  1  1.082100  0.320820  0.776430  1
  C  C20  1  1.200800  0.531100  0.714440  1
  C  C21  1  -0.200800  0.468900  0.285560  1
  C  C22  1  1.212700  0.383860  0.787570  1
  H  H23  1  0.479001  0.761225  0.371016  1
  H  H24  1  0.193017  0.775831  0.268304  1
  H  H25  1  0.762448  0.742094  0.480760  1
  H  H26  1  0.520999  0.238775  0.628984  1
  H  H27  1  0.237552  0.257906  0.519240  1
  H  H28  1  0.806983  0.224169  0.731696  1
  H  H29  1  -0.099250  0.792908  0.163825  1
  H  H30  1  1.055606  0.724794  0.581431  1
  H  H31  1  -0.055606  0.275206  0.418569  1
  H  H32  1  -0.326486  0.683374  0.145140  1
  H  H33  1  1.099250  0.207092  0.836175  1
  H  H34  1  1.305650  0.584619  0.720685  1
  H  H35  1  -0.305650  0.415381  0.279315  1
  H  H36  1  1.326486  0.316626  0.854860  1
