# generated using pymatgen
data_H2C5S
_symmetry_space_group_name_H-M   'P 1'
_cell_length_a   8.12440000
_cell_length_b   11.82740000
_cell_length_c   16.62850000
_cell_angle_alpha   70.29400000
_cell_angle_beta   75.90600000
_cell_angle_gamma   82.31700000
_symmetry_Int_Tables_number   1
_chemical_formula_structural   H2C5S
_chemical_formula_sum   'H12 C30 S6'
_cell_volume   1456.65231151
_cell_formula_units_Z   6
loop_
 _symmetry_equiv_pos_site_id
 _symmetry_equiv_pos_as_xyz
  1  'x, y, z'
loop_
 _atom_site_type_symbol
 _atom_site_label
 _atom_site_symmetry_multiplicity
 _atom_site_fract_x
 _atom_site_fract_y
 _atom_site_fract_z
 _atom_site_occupancy
  C  C1  1  0.360200  0.565700  0.526700  1
  C  C2  1  0.368300  0.529000  0.453300  1
  C  C3  1  0.479900  0.542000  0.573390  1
  C  C4  1  0.221000  0.569200  0.418000  1
  C  C5  1  0.520100  0.458000  0.426610  1
  C  C6  1  0.106700  0.637200  0.460700  1
  C  C7  1  0.631700  0.471000  0.546700  1
  C  C8  1  0.639800  0.434300  0.473300  1
  C  C9  1  -0.057100  0.692000  0.440200  1
  C  C10  1  0.779000  0.430800  0.582000  1
  C  C11  1  -0.176800  0.751500  0.485000  1
  C  C12  1  0.893300  0.362800  0.539300  1
  C  C13  1  -0.323900  0.794000  0.449400  1
  C  C14  1  -0.309000  0.765900  0.371400  1
  C  C15  1  1.057100  0.308000  0.559800  1
  C  C16  1  -0.469200  0.858200  0.479500  1
  C  C17  1  -0.436800  0.796000  0.324300  1
  C  C18  1  1.176800  0.248500  0.515000  1
  C  C19  1  -0.593700  0.892100  0.430100  1
  C  C20  1  -0.581600  0.860000  0.354100  1
  C  C21  1  1.323900  0.206000  0.550600  1
  C  C22  1  1.309000  0.234100  0.628600  1
  C  C23  1  -0.731000  0.900200  0.319600  1
  C  C24  1  1.469200  0.141800  0.520500  1
  C  C25  1  1.436800  0.204000  0.675700  1
  C  C26  1  -0.849400  0.957900  0.365200  1
  C  C27  1  1.593700  0.107900  0.569900  1
  C  C28  1  1.581600  0.140000  0.645900  1
  C  C29  1  1.731000  0.099800  0.680400  1
  C  C30  1  1.849400  0.042100  0.634800  1
  H  H31  1  0.455741  0.577598  0.628616  1
  H  H32  1  0.544259  0.422402  0.371384  1
  H  H33  1  -0.156551  0.764063  0.544416  1
  H  H34  1  -0.484992  0.881205  0.539859  1
  H  H35  1  -0.423771  0.770018  0.265362  1
  H  H36  1  1.156551  0.235937  0.455584  1
  H  H37  1  -0.753766  0.887348  0.260776  1
  H  H38  1  1.484992  0.118795  0.460141  1
  H  H39  1  1.423771  0.229982  0.734638  1
  H  H40  1  -0.963184  0.987215  0.337023  1
  H  H41  1  1.753766  0.112652  0.739224  1
  H  H42  1  1.963184  0.012785  0.662977  1
  S  S43  1  0.168870  0.649280  0.549670  1
  S  S44  1  0.831130  0.350720  0.450330  1
  S  S45  1  -0.116490  0.686080  0.347310  1
  S  S46  1  1.116490  0.313920  0.652690  1
  S  S47  1  -0.787860  0.969240  0.455360  1
  S  S48  1  1.787860  0.030760  0.544640  1
