# generated using pymatgen
data_H7C11
_symmetry_space_group_name_H-M   'P 1'
_cell_length_a   9.40780000
_cell_length_b   10.79170000
_cell_length_c   10.96220000
_cell_angle_alpha   67.76710000
_cell_angle_beta   82.78120000
_cell_angle_gamma   84.55380000
_symmetry_Int_Tables_number   1
_chemical_formula_structural   H7C11
_chemical_formula_sum   'H14 C22'
_cell_volume   1020.67975844
_cell_formula_units_Z   2
loop_
 _symmetry_equiv_pos_site_id
 _symmetry_equiv_pos_as_xyz
  1  'x, y, z'
loop_
 _atom_site_type_symbol
 _atom_site_label
 _atom_site_symmetry_multiplicity
 _atom_site_fract_x
 _atom_site_fract_y
 _atom_site_fract_z
 _atom_site_occupancy
  C  C1  1  0.511170  0.560310  0.593040  1
  C  C2  1  0.382550  0.580580  0.531700  1
  C  C3  1  0.628100  0.478820  0.565010  1
  C  C4  1  0.371900  0.521180  0.434990  1
  C  C5  1  0.263770  0.656210  0.562240  1
  C  C6  1  0.617450  0.419420  0.468300  1
  C  C7  1  0.755160  0.454010  0.627590  1
  C  C8  1  0.488830  0.439690  0.406960  1
  C  C9  1  0.244840  0.545990  0.372410  1
  C  C10  1  0.138770  0.678680  0.500980  1
  C  C11  1  0.736230  0.343790  0.437760  1
  C  C12  1  0.870120  0.376290  0.598840  1
  C  C13  1  0.129880  0.623710  0.401160  1
  C  C14  1  0.017070  0.755660  0.531660  1
  C  C15  1  0.861230  0.321320  0.499020  1
  C  C16  1  0.999380  0.350390  0.662790  1
  C  C17  1  0.000620  0.649610  0.337210  1
  C  C18  1  -0.102300  0.777280  0.468630  1
  C  C19  1  0.982930  0.244340  0.468340  1
  C  C20  1  1.110900  0.276320  0.630470  1
  C  C21  1  -0.110900  0.723680  0.369530  1
  C  C22  1  1.102300  0.222720  0.531370  1
  H  H23  1  0.520404  0.608671  0.663638  1
  H  H24  1  0.268865  0.699756  0.637437  1
  H  H25  1  0.765040  0.497212  0.702162  1
  H  H26  1  0.479596  0.391329  0.336362  1
  H  H27  1  0.234960  0.502788  0.297838  1
  H  H28  1  0.731135  0.300244  0.362563  1
  H  H29  1  0.015195  0.800204  0.607061  1
  H  H30  1  1.013583  0.388956  0.739866  1
  H  H31  1  -0.013583  0.611044  0.260134  1
  H  H32  1  -0.191165  0.837625  0.497567  1
  H  H33  1  0.984805  0.199796  0.392939  1
  H  H34  1  1.206761  0.259984  0.683764  1
  H  H35  1  -0.206761  0.740016  0.316236  1
  H  H36  1  1.191165  0.162375  0.502433  1
