# generated using pymatgen
data_H5C9S
_symmetry_space_group_name_H-M   'P 1'
_cell_length_a   12.53640000
_cell_length_b   11.09820000
_cell_length_c   15.60300000
_cell_angle_alpha   90.00000000
_cell_angle_beta   95.20300000
_cell_angle_gamma   90.00000000
_symmetry_Int_Tables_number   1
_chemical_formula_structural   H5C9S
_chemical_formula_sum   'H20 C36 S4'
_cell_volume   2161.92366249
_cell_formula_units_Z   4
loop_
 _symmetry_equiv_pos_site_id
 _symmetry_equiv_pos_as_xyz
  1  'x, y, z'
loop_
 _atom_site_type_symbol
 _atom_site_label
 _atom_site_symmetry_multiplicity
 _atom_site_fract_x
 _atom_site_fract_y
 _atom_site_fract_z
 _atom_site_occupancy
  C  C1  1  0.775670  0.503100  0.828600  1
  C  C2  1  0.840520  0.408540  0.799870  1
  C  C3  1  0.806040  0.563890  0.903010  1
  C  C4  1  0.791900  0.358100  0.722000  1
  C  C5  1  0.933940  0.377450  0.845590  1
  C  C6  1  0.697300  0.409500  0.694300  1
  C  C7  1  0.902340  0.532980  0.951810  1
  C  C8  1  0.967850  0.437940  0.922530  1
  C  C9  1  0.935990  0.593280  1.028940  1
  C  C10  1  1.064010  0.406720  0.971060  1
  C  C11  1  1.032150  0.562060  1.077470  1
  C  C12  1  1.097660  0.467020  1.048190  1
  C  C13  1  1.066060  0.622550  1.154410  1
  C  C14  1  1.193960  0.436110  1.096990  1
  C  C15  1  1.159480  0.591460  1.200130  1
  C  C16  1  1.224330  0.496900  1.171400  1
  C  C17  1  1.208100  0.641900  1.278000  1
  C  C18  1  1.302700  0.590500  1.305700  1
  C  C19  1  1.724330  0.003100  1.671400  1
  C  C20  1  1.659480  -0.091460  1.700130  1
  C  C21  1  1.693960  0.063890  1.596990  1
  C  C22  1  1.708100  -0.141900  1.778000  1
  C  C23  1  1.566060  -0.122550  1.654410  1
  C  C24  1  1.802700  -0.090500  1.805700  1
  C  C25  1  1.597660  0.032980  1.548190  1
  C  C26  1  1.532150  -0.062060  1.577470  1
  C  C27  1  1.564010  0.093280  1.471060  1
  C  C28  1  1.435990  -0.093280  1.528940  1
  C  C29  1  1.467850  0.062060  1.422530  1
  C  C30  1  1.402340  -0.032980  1.451810  1
  C  C31  1  1.433940  0.122550  1.345590  1
  C  C32  1  1.306040  -0.063890  1.403010  1
  C  C33  1  1.340520  0.091460  1.299870  1
  C  C34  1  1.275670  -0.003100  1.328600  1
  C  C35  1  1.291900  0.141900  1.222000  1
  C  C36  1  1.197300  0.090500  1.194300  1
  H  H37  1  0.753951  0.636340  0.923244  1
  H  H38  1  0.825219  0.284303  0.685645  1
  H  H39  1  0.981521  0.304228  0.820628  1
  H  H40  1  0.659770  0.366988  0.635405  1
  H  H41  1  0.886215  0.666156  1.051714  1
  H  H42  1  1.113785  0.333844  0.948286  1
  H  H43  1  1.018479  0.695772  1.179372  1
  H  H44  1  1.246049  0.363660  1.076756  1
  H  H45  1  1.174781  0.715697  1.314355  1
  H  H46  1  1.340230  0.633012  1.364595  1
  H  H47  1  1.746049  0.136340  1.576756  1
  H  H48  1  1.674781  -0.215697  1.814355  1
  H  H49  1  1.518479  -0.195772  1.679372  1
  H  H50  1  1.840230  -0.133012  1.864595  1
  H  H51  1  1.613785  0.166156  1.448286  1
  H  H52  1  1.386215  -0.166156  1.551714  1
  H  H53  1  1.481521  0.195772  1.320628  1
  H  H54  1  1.253951  -0.136340  1.423244  1
  H  H55  1  1.325219  0.215697  1.185645  1
  H  H56  1  1.159770  0.133012  1.135405  1
  S  S57  1  0.661230  0.527200  0.758450  1
  S  S58  1  1.338770  0.472800  1.241550  1
  S  S59  1  1.838770  0.027200  1.741550  1
  S  S60  1  1.161230  -0.027200  1.258450  1
