# generated using pymatgen
data_H5C9S
_symmetry_space_group_name_H-M   'P 1'
_cell_length_a   15.09980000
_cell_length_b   15.28270000
_cell_length_c   17.02800000
_cell_angle_alpha   90.00000000
_cell_angle_beta   103.86300000
_cell_angle_gamma   90.00000000
_symmetry_Int_Tables_number   1
_chemical_formula_structural   H5C9S
_chemical_formula_sum   'H40 C72 S8'
_cell_volume   3815.01840519
_cell_formula_units_Z   8
loop_
 _symmetry_equiv_pos_site_id
 _symmetry_equiv_pos_as_xyz
  1  'x, y, z'
loop_
 _atom_site_type_symbol
 _atom_site_label
 _atom_site_symmetry_multiplicity
 _atom_site_fract_x
 _atom_site_fract_y
 _atom_site_fract_z
 _atom_site_occupancy
  C  C1  1  0.001750  0.603800  0.403590  1
  C  C2  1  0.000840  0.609650  0.487370  1
  C  C3  1  0.082320  0.601450  0.380220  1
  C  C4  1  -0.091500  0.611700  0.492000  1
  C  C5  1  0.080880  0.610830  0.545640  1
  C  C6  1  -0.150800  0.606800  0.422200  1
  C  C7  1  0.166320  0.604850  0.439360  1
  C  C8  1  0.165890  0.607660  0.523600  1
  C  C9  1  0.250720  0.605770  0.417260  1
  C  C10  1  0.249280  0.605770  0.582740  1
  C  C11  1  0.334110  0.607660  0.476400  1
  C  C12  1  0.333680  0.604850  0.560640  1
  C  C13  1  0.419120  0.610830  0.454360  1
  C  C14  1  0.417680  0.601450  0.619780  1
  C  C15  1  0.499160  0.609650  0.512630  1
  C  C16  1  0.498250  0.603800  0.596410  1
  C  C17  1  0.591500  0.611700  0.508000  1
  C  C18  1  0.650800  0.606800  0.577800  1
  C  C19  1  -0.498250  1.103800  -0.096410  1
  C  C20  1  -0.499160  1.109650  -0.012630  1
  C  C21  1  -0.417680  1.101450  -0.119780  1
  C  C22  1  -0.591500  1.111700  -0.008000  1
  C  C23  1  -0.419120  1.110830  0.045640  1
  C  C24  1  -0.650800  1.106800  -0.077800  1
  C  C25  1  -0.333680  1.104850  -0.060640  1
  C  C26  1  -0.334110  1.107660  0.023600  1
  C  C27  1  -0.249280  1.105770  -0.082740  1
  C  C28  1  -0.250720  1.105770  0.082740  1
  C  C29  1  -0.165890  1.107660  -0.023600  1
  C  C30  1  -0.166320  1.104850  0.060640  1
  C  C31  1  -0.080880  1.110830  -0.045640  1
  C  C32  1  -0.082320  1.101450  0.119780  1
  C  C33  1  -0.000840  1.109650  0.012630  1
  C  C34  1  -0.001750  1.103800  0.096410  1
  C  C35  1  0.091500  1.111700  0.008000  1
  C  C36  1  0.150800  1.106800  0.077800  1
  C  C37  1  0.998250  0.396200  0.596410  1
  C  C38  1  0.999160  0.390350  0.512630  1
  C  C39  1  0.917680  0.398550  0.619780  1
  C  C40  1  1.091500  0.388300  0.508000  1
  C  C41  1  0.919120  0.389170  0.454360  1
  C  C42  1  1.150800  0.393200  0.577800  1
  C  C43  1  0.833680  0.395150  0.560640  1
  C  C44  1  0.834110  0.392340  0.476400  1
  C  C45  1  0.749280  0.394230  0.582740  1
  C  C46  1  0.750720  0.394230  0.417260  1
  C  C47  1  0.665890  0.392340  0.523600  1
  C  C48  1  0.666320  0.395150  0.439360  1
  C  C49  1  0.580880  0.389170  0.545640  1
  C  C50  1  0.582320  0.398550  0.380220  1
  C  C51  1  0.500840  0.390350  0.487370  1
  C  C52  1  0.501750  0.396200  0.403590  1
  C  C53  1  0.408500  0.388300  0.492000  1
  C  C54  1  0.349200  0.393200  0.422200  1
  C  C55  1  0.498250  0.896200  0.096410  1
  C  C56  1  0.499160  0.890350  0.012630  1
  C  C57  1  0.417680  0.898550  0.119780  1
  C  C58  1  0.591500  0.888300  0.008000  1
  C  C59  1  0.419120  0.889170  -0.045640  1
  C  C60  1  0.650800  0.893200  0.077800  1
  C  C61  1  0.333680  0.895150  0.060640  1
  C  C62  1  0.334110  0.892340  -0.023600  1
  C  C63  1  0.249280  0.894230  0.082740  1
  C  C64  1  0.250720  0.894230  -0.082740  1
  C  C65  1  0.165890  0.892340  0.023600  1
  C  C66  1  0.166320  0.895150  -0.060640  1
  C  C67  1  0.080880  0.889170  0.045640  1
  C  C68  1  0.082320  0.898550  -0.119780  1
  C  C69  1  0.000840  0.890350  -0.012630  1
  C  C70  1  0.001750  0.896200  -0.096410  1
  C  C71  1  -0.091500  0.888300  -0.008000  1
  C  C72  1  -0.150800  0.893200  -0.077800  1
  H  H73  1  0.079618  0.596920  0.315216  1
  H  H74  1  -0.116175  0.616890  0.547586  1
  H  H75  1  0.076944  0.614275  0.609240  1
  H  H76  1  -0.220019  0.608667  0.432371  1
  H  H77  1  0.251521  0.605001  0.352838  1
  H  H78  1  0.248479  0.605001  0.647162  1
  H  H79  1  0.423056  0.614275  0.390760  1
  H  H80  1  0.420382  0.596920  0.684784  1
  H  H81  1  0.616175  0.616890  0.452414  1
  H  H82  1  0.720019  0.608667  0.567629  1
  H  H83  1  -0.420382  1.096920  -0.184784  1
  H  H84  1  -0.616175  1.116890  0.047586  1
  H  H85  1  -0.423056  1.114275  0.109240  1
  H  H86  1  -0.720019  1.108667  -0.067629  1
  H  H87  1  -0.248479  1.105001  -0.147162  1
  H  H88  1  -0.251521  1.105001  0.147162  1
  H  H89  1  -0.076944  1.114275  -0.109240  1
  H  H90  1  -0.079618  1.096920  0.184784  1
  H  H91  1  0.116175  1.116890  -0.047586  1
  H  H92  1  0.220019  1.108667  0.067629  1
  H  H93  1  0.920382  0.403080  0.684784  1
  H  H94  1  1.116175  0.383110  0.452414  1
  H  H95  1  0.923056  0.385725  0.390760  1
  H  H96  1  1.220019  0.391333  0.567629  1
  H  H97  1  0.748479  0.394999  0.647162  1
  H  H98  1  0.751521  0.394999  0.352838  1
  H  H99  1  0.576944  0.385725  0.609240  1
  H  H100  1  0.579618  0.403080  0.315216  1
  H  H101  1  0.383825  0.383110  0.547586  1
  H  H102  1  0.279981  0.391333  0.432371  1
  H  H103  1  0.420382  0.903080  0.184784  1
  H  H104  1  0.616175  0.883110  -0.047586  1
  H  H105  1  0.423056  0.885725  -0.109240  1
  H  H106  1  0.720019  0.891333  0.067629  1
  H  H107  1  0.248479  0.894999  0.147162  1
  H  H108  1  0.251521  0.894999  -0.147162  1
  H  H109  1  0.076944  0.885725  0.109240  1
  H  H110  1  0.079618  0.903080  -0.184784  1
  H  H111  1  -0.116175  0.883110  0.047586  1
  H  H112  1  -0.220019  0.891333  -0.067629  1
  S  S113  1  -0.104070  0.599040  0.336820  1
  S  S114  1  0.604070  0.599040  0.663180  1
  S  S115  1  -0.604070  1.099040  -0.163180  1
  S  S116  1  0.104070  1.099040  0.163180  1
  S  S117  1  1.104070  0.400960  0.663180  1
  S  S118  1  0.395930  0.400960  0.336820  1
  S  S119  1  0.604070  0.900960  0.163180  1
  S  S120  1  -0.104070  0.900960  -0.163180  1
