# generated using pymatgen
data_H7C11
_symmetry_space_group_name_H-M   'P 1'
_cell_length_a   14.29740000
_cell_length_b   10.55210000
_cell_length_c   15.09200000
_cell_angle_alpha   90.00000000
_cell_angle_beta   92.17590000
_cell_angle_gamma   90.00000000
_symmetry_Int_Tables_number   1
_chemical_formula_structural   H7C11
_chemical_formula_sum   'H28 C44'
_cell_volume   2275.25203917
_cell_formula_units_Z   4
loop_
 _symmetry_equiv_pos_site_id
 _symmetry_equiv_pos_as_xyz
  1  'x, y, z'
loop_
 _atom_site_type_symbol
 _atom_site_label
 _atom_site_symmetry_multiplicity
 _atom_site_fract_x
 _atom_site_fract_y
 _atom_site_fract_z
 _atom_site_occupancy
  C  C1  1  0.535920  0.611640  0.541280  1
  C  C2  1  0.437650  0.595850  0.529020  1
  C  C3  1  0.598670  0.516980  0.513670  1
  C  C4  1  0.401330  0.483020  0.486330  1
  C  C5  1  0.374370  0.687510  0.558320  1
  C  C6  1  0.562350  0.404150  0.470980  1
  C  C7  1  0.696320  0.529030  0.528300  1
  C  C8  1  0.464080  0.388360  0.458720  1
  C  C9  1  0.303680  0.470970  0.471700  1
  C  C10  1  0.278280  0.673360  0.545400  1
  C  C11  1  0.625630  0.312490  0.441680  1
  C  C12  1  0.757800  0.436790  0.500750  1
  C  C13  1  0.242200  0.563210  0.499250  1
  C  C14  1  0.213700  0.765580  0.575940  1
  C  C15  1  0.721720  0.326640  0.454600  1
  C  C16  1  0.857000  0.446300  0.517100  1
  C  C17  1  0.143000  0.553700  0.482900  1
  C  C18  1  0.120100  0.751830  0.559750  1
  C  C19  1  0.786300  0.234420  0.424060  1
  C  C20  1  0.915460  0.355330  0.488490  1
  C  C21  1  0.084540  0.644670  0.511510  1
  C  C22  1  0.879900  0.248170  0.440250  1
  C  C23  1  0.464080  0.111640  0.958720  1
  C  C24  1  0.562350  0.095850  0.970980  1
  C  C25  1  0.401330  0.016980  0.986330  1
  C  C26  1  0.598670  -0.016980  1.013670  1
  C  C27  1  0.625630  0.187510  0.941680  1
  C  C28  1  0.437650  -0.095850  1.029020  1
  C  C29  1  0.303680  0.029030  0.971700  1
  C  C30  1  0.535920  -0.111640  1.041280  1
  C  C31  1  0.696320  -0.029030  1.028300  1
  C  C32  1  0.721720  0.173360  0.954600  1
  C  C33  1  0.374370  -0.187510  1.058320  1
  C  C34  1  0.242200  -0.063210  0.999250  1
  C  C35  1  0.757800  0.063210  1.000750  1
  C  C36  1  0.786300  0.265580  0.924060  1
  C  C37  1  0.278280  -0.173360  1.045400  1
  C  C38  1  0.143000  -0.053700  0.982900  1
  C  C39  1  0.857000  0.053700  1.017100  1
  C  C40  1  0.879900  0.251830  0.940250  1
  C  C41  1  0.213700  -0.265580  1.075940  1
  C  C42  1  0.084540  -0.144670  1.011510  1
  C  C43  1  0.915460  0.144670  0.988490  1
  C  C44  1  0.120100  -0.251830  1.059750  1
  H  H45  1  0.563863  0.698531  0.572646  1
  H  H46  1  0.400905  0.773083  0.592465  1
  H  H47  1  0.725503  0.613175  0.562332  1
  H  H48  1  0.436137  0.301469  0.427354  1
  H  H49  1  0.274497  0.386825  0.437668  1
  H  H50  1  0.599095  0.226917  0.407535  1
  H  H51  1  0.236873  0.850198  0.613254  1
  H  H52  1  0.889564  0.526615  0.553037  1
  H  H53  1  0.110436  0.473385  0.446963  1
  H  H54  1  0.074080  0.825896  0.585163  1
  H  H55  1  0.763127  0.149802  0.386746  1
  H  H56  1  0.990615  0.368271  0.504181  1
  H  H57  1  0.009385  0.631729  0.495819  1
  H  H58  1  0.925920  0.174104  0.414837  1
  H  H59  1  0.436137  0.198531  0.927354  1
  H  H60  1  0.599095  0.273083  0.907535  1
  H  H61  1  0.274497  0.113175  0.937668  1
  H  H62  1  0.563863  -0.198531  1.072646  1
  H  H63  1  0.725503  -0.113175  1.062332  1
  H  H64  1  0.400905  -0.273083  1.092465  1
  H  H65  1  0.763127  0.350198  0.886746  1
  H  H66  1  0.110436  0.026615  0.946963  1
  H  H67  1  0.889564  -0.026615  1.053037  1
  H  H68  1  0.925920  0.325896  0.914837  1
  H  H69  1  0.236873  -0.350198  1.113254  1
  H  H70  1  0.009385  -0.131729  0.995819  1
  H  H71  1  0.990615  0.131729  1.004181  1
  H  H72  1  0.074080  -0.325896  1.085163  1
