# generated using pymatgen
data_H5C9S
_symmetry_space_group_name_H-M   'P 1'
_cell_length_a   7.19260000
_cell_length_b   10.28590000
_cell_length_c   11.15650000
_cell_angle_alpha   95.36860000
_cell_angle_beta   90.09350000
_cell_angle_gamma   98.62500000
_symmetry_Int_Tables_number   1
_chemical_formula_structural   H5C9S
_chemical_formula_sum   'H10 C18 S2'
_cell_volume   812.36745303
_cell_formula_units_Z   2
loop_
 _symmetry_equiv_pos_site_id
 _symmetry_equiv_pos_as_xyz
  1  'x, y, z'
loop_
 _atom_site_type_symbol
 _atom_site_label
 _atom_site_symmetry_multiplicity
 _atom_site_fract_x
 _atom_site_fract_y
 _atom_site_fract_z
 _atom_site_occupancy
  C  C1  1  0.919600  0.852900  0.896860  1
  C  C2  1  0.870700  0.782900  1.000150  1
  C  C3  1  0.817400  0.945600  0.863310  1
  C  C4  1  1.003200  0.691800  1.011600  1
  C  C5  1  0.717000  0.807000  1.067000  1
  C  C6  1  1.134200  0.691100  0.925500  1
  C  C7  1  0.658700  0.973400  0.930510  1
  C  C8  1  0.608300  0.903300  1.034760  1
  C  C9  1  0.550200  1.069400  0.897520  1
  C  C10  1  0.449800  0.930600  1.102480  1
  C  C11  1  0.391700  1.096700  0.965240  1
  C  C12  1  0.341300  1.026600  1.069490  1
  C  C13  1  0.283000  1.193000  0.933000  1
  C  C14  1  0.182600  1.054400  1.136690  1
  C  C15  1  0.129300  1.217100  0.999850  1
  C  C16  1  0.080400  1.147100  1.103140  1
  C  C17  1  -0.003200  1.308200  0.988400  1
  C  C18  1  -0.134200  1.308900  1.074500  1
  H  H19  1  0.862082  0.996925  0.783634  1
  H  H20  1  1.004302  0.625381  1.083272  1
  H  H21  1  0.681653  0.750287  1.144835  1
  H  H22  1  1.226915  0.617340  0.937783  1
  H  H23  1  0.589438  1.123313  0.818487  1
  H  H24  1  0.410562  0.876687  1.181513  1
  H  H25  1  0.318347  1.249713  0.855165  1
  H  H26  1  0.137918  1.003075  1.216366  1
  H  H27  1  -0.004302  1.374619  0.916728  1
  H  H28  1  -0.226915  1.382660  1.062217  1
  S  S29  1  1.120270  0.805700  0.820200  1
  S  S30  1  -0.120270  1.194300  1.179800  1
