# generated using pymatgen
data_H7(C5S)3
_symmetry_space_group_name_H-M   'P 1'
_cell_length_a   8.09380000
_cell_length_b   11.61600000
_cell_length_c   16.82100000
_cell_angle_alpha   105.96300000
_cell_angle_beta   101.94200000
_cell_angle_gamma   94.87400000
_symmetry_Int_Tables_number   1
_chemical_formula_structural   H7(C5S)3
_chemical_formula_sum   'H14 C30 S6'
_cell_volume   1470.56299557
_cell_formula_units_Z   2
loop_
 _symmetry_equiv_pos_site_id
 _symmetry_equiv_pos_as_xyz
  1  'x, y, z'
loop_
 _atom_site_type_symbol
 _atom_site_label
 _atom_site_symmetry_multiplicity
 _atom_site_fract_x
 _atom_site_fract_y
 _atom_site_fract_z
 _atom_site_occupancy
  C  C1  1  0.333900  0.470500  0.449500  1
  C  C2  1  0.375900  0.437000  0.524800  1
  C  C3  1  0.457800  0.534200  0.423600  1
  C  C4  1  0.209700  0.374400  0.525900  1
  C  C5  1  0.542200  0.465800  0.576400  1
  C  C6  1  0.076300  0.367000  0.459100  1
  C  C7  1  0.624100  0.563000  0.475200  1
  C  C8  1  0.666100  0.529500  0.550500  1
  C  C9  1  -0.093400  0.309000  0.450400  1
  C  C10  1  0.790300  0.625600  0.474100  1
  C  C11  1  -0.227700  0.298600  0.384100  1
  C  C12  1  0.923700  0.633000  0.540900  1
  C  C13  1  -0.388700  0.239000  0.390100  1
  C  C14  1  -0.355900  0.206000  0.464400  1
  C  C15  1  1.093400  0.691000  0.549600  1
  C  C16  1  -0.545700  0.209000  0.333700  1
  C  C17  1  -0.491500  0.143000  0.485000  1
  C  C18  1  1.227700  0.701400  0.615900  1
  C  C19  1  -0.679000  0.141000  0.352400  1
  C  C20  1  -0.647000  0.111000  0.427700  1
  C  C21  1  1.388700  0.761000  0.609900  1
  C  C22  1  1.355900  0.794000  0.535600  1
  C  C23  1  -0.804800  0.043500  0.431600  1
  C  C24  1  1.545700  0.791000  0.666300  1
  C  C25  1  1.491500  0.857000  0.515000  1
  C  C26  1  -0.939500  0.054000  0.373100  1
  C  C27  1  1.679000  0.859000  0.647600  1
  C  C28  1  1.647000  0.889000  0.572300  1
  C  C29  1  1.804800  0.956500  0.568400  1
  C  C30  1  1.939500  0.946000  0.626900  1
  H  H31  1  0.425697  0.560624  0.364922  1
  H  H32  1  0.185834  0.334236  0.575305  1
  H  H33  1  0.574303  0.439376  0.635078  1
  H  H34  1  0.814166  0.665764  0.424695  1
  H  H35  1  -0.208428  0.334113  0.331913  1
  H  H36  1  -0.563916  0.238207  0.275978  1
  H  H37  1  -0.476229  0.119211  0.544780  1
  H  H38  1  1.208428  0.665887  0.668087  1
  H  H39  1  -0.820765  -0.010409  0.474727  1
  H  H40  1  1.563916  0.761793  0.724022  1
  H  H41  1  1.476229  0.880789  0.455220  1
  H  H42  1  -1.062393  0.028479  0.386646  1
  H  H43  1  1.820765  1.010409  0.525273  1
  H  H44  1  2.062393  0.971521  0.613354  1
  S  S45  1  0.132100  0.432400  0.387260  1
  S  S46  1  0.867900  0.567600  0.612740  1
  S  S47  1  -0.149400  0.243700  0.522130  1
  S  S48  1  1.149400  0.756300  0.477870  1
  S  S49  1  -0.886400  0.103500  0.293900  1
  S  S50  1  1.886400  0.896500  0.706100  1
