# generated using pymatgen
data_H7C11
_symmetry_space_group_name_H-M   'P 1'
_cell_length_a   8.88400000
_cell_length_b   22.32400000
_cell_length_c   10.79700000
_cell_angle_alpha   90.00000000
_cell_angle_beta   110.14600000
_cell_angle_gamma   90.00000000
_symmetry_Int_Tables_number   1
_chemical_formula_structural   H7C11
_chemical_formula_sum   'H28 C44'
_cell_volume   2010.31953178
_cell_formula_units_Z   4
loop_
 _symmetry_equiv_pos_site_id
 _symmetry_equiv_pos_as_xyz
  1  'x, y, z'
loop_
 _atom_site_type_symbol
 _atom_site_label
 _atom_site_symmetry_multiplicity
 _atom_site_fract_x
 _atom_site_fract_y
 _atom_site_fract_z
 _atom_site_occupancy
  C  C1  1  0.515400  0.042860  0.101000  1
  C  C2  1  0.628800  0.042160  0.034250  1
  C  C3  1  0.388700  0.000790  0.069150  1
  C  C4  1  0.611300  -0.000790  -0.069150  1
  C  C5  1  0.757400  0.082860  0.066540  1
  C  C6  1  0.371200  -0.042160  -0.034250  1
  C  C7  1  0.278100  -0.000660  0.137040  1
  C  C8  1  0.484600  -0.042860  -0.101000  1
  C  C9  1  0.721900  0.000660  -0.137040  1
  C  C10  1  0.865300  0.083960  -0.000210  1
  C  C11  1  0.242600  -0.082860  -0.066540  1
  C  C12  1  0.154100  -0.041990  0.106200  1
  C  C13  1  0.845900  0.041990  -0.106200  1
  C  C14  1  0.995300  0.125180  0.032570  1
  C  C15  1  0.134700  -0.083960  0.000210  1
  C  C16  1  0.041000  -0.044340  0.174960  1
  C  C17  1  0.959000  0.044340  -0.174960  1
  C  C18  1  1.099100  0.125470  -0.034300  1
  C  C19  1  0.004700  -0.125180  -0.032570  1
  C  C20  1  -0.079800  -0.084600  0.139500  1
  C  C21  1  1.079800  0.084600  -0.139500  1
  C  C22  1  -0.099100  -0.125470  0.034300  1
  C  C23  1  0.484600  0.542860  -0.601000  1
  C  C24  1  0.371200  0.542160  -0.534250  1
  C  C25  1  0.611300  0.500790  -0.569150  1
  C  C26  1  0.388700  0.499210  -0.430850  1
  C  C27  1  0.242600  0.582860  -0.566540  1
  C  C28  1  0.628800  0.457840  -0.465750  1
  C  C29  1  0.721900  0.499340  -0.637040  1
  C  C30  1  0.515400  0.457140  -0.399000  1
  C  C31  1  0.278100  0.500660  -0.362960  1
  C  C32  1  0.134700  0.583960  -0.499790  1
  C  C33  1  0.757400  0.417140  -0.433460  1
  C  C34  1  0.845900  0.458010  -0.606200  1
  C  C35  1  0.154100  0.541990  -0.393800  1
  C  C36  1  0.004700  0.625180  -0.532570  1
  C  C37  1  0.865300  0.416040  -0.500210  1
  C  C38  1  0.959000  0.455660  -0.674960  1
  C  C39  1  0.041000  0.544340  -0.325040  1
  C  C40  1  -0.099100  0.625470  -0.465700  1
  C  C41  1  0.995300  0.374820  -0.467430  1
  C  C42  1  1.079800  0.415400  -0.639500  1
  C  C43  1  -0.079800  0.584600  -0.360500  1
  C  C44  1  1.099100  0.374530  -0.534300  1
  H  H45  1  0.525817  0.076360  0.178230  1
  H  H46  1  0.774263  0.115119  0.147220  1
  H  H47  1  0.288920  0.031543  0.216764  1
  H  H48  1  0.474183  -0.076360  -0.178230  1
  H  H49  1  0.711080  -0.031543  -0.216764  1
  H  H50  1  0.225737  -0.115119  -0.147220  1
  H  H51  1  1.016352  0.158067  0.112639  1
  H  H52  1  0.047090  -0.014355  0.257394  1
  H  H53  1  0.952910  0.014355  -0.257394  1
  H  H54  1  1.197342  0.158318  -0.003710  1
  H  H55  1  -0.016352  -0.158067  -0.112639  1
  H  H56  1  -0.161932  -0.084106  0.195932  1
  H  H57  1  1.161932  0.084106  -0.195932  1
  H  H58  1  -0.197342  -0.158318  0.003710  1
  H  H59  1  0.474183  0.576360  -0.678230  1
  H  H60  1  0.225737  0.615119  -0.647220  1
  H  H61  1  0.711080  0.531543  -0.716764  1
  H  H62  1  0.525817  0.423640  -0.321770  1
  H  H63  1  0.288920  0.468457  -0.283236  1
  H  H64  1  0.774263  0.384881  -0.352780  1
  H  H65  1  -0.016352  0.658067  -0.612639  1
  H  H66  1  0.952910  0.485645  -0.757394  1
  H  H67  1  0.047090  0.514355  -0.242606  1
  H  H68  1  -0.197342  0.658318  -0.496290  1
  H  H69  1  1.016352  0.341933  -0.387361  1
  H  H70  1  1.161932  0.415894  -0.695932  1
  H  H71  1  -0.161932  0.584106  -0.304068  1
  H  H72  1  1.197342  0.341682  -0.503710  1
