# generated using pymatgen
data_H5C9S
_symmetry_space_group_name_H-M   'P 1'
_cell_length_a   6.23890000
_cell_length_b   8.45940000
_cell_length_c   15.36380000
_cell_angle_alpha   78.96900000
_cell_angle_beta   86.03900000
_cell_angle_gamma   82.59900000
_symmetry_Int_Tables_number   1
_chemical_formula_structural   H5C9S
_chemical_formula_sum   'H10 C18 S2'
_cell_volume   788.42581417
_cell_formula_units_Z   2
loop_
 _symmetry_equiv_pos_site_id
 _symmetry_equiv_pos_as_xyz
  1  'x, y, z'
loop_
 _atom_site_type_symbol
 _atom_site_label
 _atom_site_symmetry_multiplicity
 _atom_site_fract_x
 _atom_site_fract_y
 _atom_site_fract_z
 _atom_site_occupancy
  C  C1  1  0.107600  0.771970  0.612330  1
  C  C2  1  -0.005500  0.771010  0.534290  1
  C  C3  1  0.305000  0.683710  0.627810  1
  C  C4  1  -0.214800  0.868700  0.536900  1
  C  C5  1  0.088100  0.685760  0.471420  1
  C  C6  1  -0.245000  0.934800  0.607900  1
  C  C7  1  0.402200  0.589550  0.564970  1
  C  C8  1  0.294500  0.594470  0.484370  1
  C  C9  1  0.604200  0.493540  0.579950  1
  C  C10  1  0.395800  0.506460  0.420050  1
  C  C11  1  0.705500  0.405530  0.515630  1
  C  C12  1  0.597800  0.410450  0.435030  1
  C  C13  1  0.911900  0.314240  0.528580  1
  C  C14  1  0.695000  0.316290  0.372190  1
  C  C15  1  1.005500  0.228990  0.465710  1
  C  C16  1  0.892400  0.228030  0.387670  1
  C  C17  1  1.214800  0.131300  0.463100  1
  C  C18  1  1.245000  0.065200  0.392100  1
  H  H19  1  0.383406  0.688327  0.689095  1
  H  H20  1  -0.341921  0.891122  0.488358  1
  H  H21  1  -0.001075  0.690535  0.411480  1
  H  H22  1  -0.405478  1.006233  0.606260  1
  H  H23  1  0.683587  0.487233  0.642466  1
  H  H24  1  0.316413  0.512767  0.357534  1
  H  H25  1  1.001075  0.309465  0.588520  1
  H  H26  1  0.616594  0.311673  0.310905  1
  H  H27  1  1.341921  0.108878  0.511642  1
  H  H28  1  1.405478  -0.006233  0.393740  1
  S  S29  1  -0.034550  0.893780  0.681360  1
  S  S30  1  1.034550  0.106220  0.318640  1
