# generated using pymatgen
data_H5C9S
_symmetry_space_group_name_H-M   'P 1'
_cell_length_a   8.71940000
_cell_length_b   9.50360000
_cell_length_c   16.90720000
_cell_angle_alpha   92.70100000
_cell_angle_beta   101.73800000
_cell_angle_gamma   107.10300000
_symmetry_Int_Tables_number   1
_chemical_formula_structural   H5C9S
_chemical_formula_sum   'H10 C18 S2'
_cell_volume   1302.47650252
_cell_formula_units_Z   2
loop_
 _symmetry_equiv_pos_site_id
 _symmetry_equiv_pos_as_xyz
  1  'x, y, z'
loop_
 _atom_site_type_symbol
 _atom_site_label
 _atom_site_symmetry_multiplicity
 _atom_site_fract_x
 _atom_site_fract_y
 _atom_site_fract_z
 _atom_site_occupancy
  C  C1  1  0.791300  0.310500  0.449000  1
  C  C2  1  0.862500  0.361400  0.533410  1
  C  C3  1  0.649200  0.338000  0.410850  1
  C  C4  1  1.004200  0.315100  0.557600  1
  C  C5  1  0.792600  0.441000  0.576550  1
  C  C6  1  1.041600  0.236600  0.500300  1
  C  C7  1  0.574500  0.418600  0.454300  1
  C  C8  1  0.647700  0.472600  0.538840  1
  C  C9  1  0.427700  0.447500  0.417370  1
  C  C10  1  0.572300  0.552500  0.582630  1
  C  C11  1  0.352300  0.527400  0.461160  1
  C  C12  1  0.425500  0.581400  0.545700  1
  C  C13  1  0.207400  0.559000  0.423450  1
  C  C14  1  0.350800  0.662000  0.589150  1
  C  C15  1  0.137500  0.638600  0.466590  1
  C  C16  1  0.208700  0.689500  0.551000  1
  C  C17  1  -0.004200  0.684900  0.442400  1
  C  C18  1  -0.041600  0.763400  0.499700  1
  H  H19  1  0.595881  0.295993  0.346297  1
  H  H20  1  1.083264  0.339509  0.619373  1
  H  H21  1  0.852352  0.479241  0.640963  1
  H  H22  1  1.150229  0.201784  0.524053  1
  H  H23  1  0.370714  0.406796  0.352945  1
  H  H24  1  0.629286  0.593204  0.647055  1
  H  H25  1  0.147648  0.520759  0.359037  1
  H  H26  1  0.404119  0.704007  0.653703  1
  H  H27  1  -0.083264  0.660491  0.380627  1
  H  H28  1  -0.150229  0.798216  0.475947  1
  S  S29  1  0.904120  0.214150  0.404760  1
  S  S30  1  0.095880  0.785850  0.595240  1
