# generated using pymatgen
data_H3C5S
_symmetry_space_group_name_H-M   'P 1'
_cell_length_a   9.06770000
_cell_length_b   12.17400000
_cell_length_c   15.70280000
_cell_angle_alpha   90.00000000
_cell_angle_beta   103.95900000
_cell_angle_gamma   90.00000000
_symmetry_Int_Tables_number   1
_chemical_formula_structural   H3C5S
_chemical_formula_sum   'H12 C20 S4'
_cell_volume   1682.24414426
_cell_formula_units_Z   4
loop_
 _symmetry_equiv_pos_site_id
 _symmetry_equiv_pos_as_xyz
  1  'x, y, z'
loop_
 _atom_site_type_symbol
 _atom_site_label
 _atom_site_symmetry_multiplicity
 _atom_site_fract_x
 _atom_site_fract_y
 _atom_site_fract_z
 _atom_site_occupancy
  C  C1  1  0.631400  0.557590  0.501400  1
  C  C2  1  0.593500  0.463800  0.446470  1
  C  C3  1  0.540800  0.594670  0.555150  1
  C  C4  1  0.708000  0.443200  0.401100  1
  C  C5  1  0.459200  0.405330  0.444850  1
  C  C6  1  0.825100  0.515700  0.419100  1
  C  C7  1  0.406500  0.536200  0.553530  1
  C  C8  1  0.368600  0.442410  0.498600  1
  C  C9  1  0.292000  0.556800  0.598900  1
  C  C10  1  0.174900  0.484300  0.580900  1
  C  C11  1  0.868600  0.057590  0.998600  1
  C  C12  1  0.906500  -0.036200  1.053530  1
  C  C13  1  0.959200  0.094670  0.944850  1
  C  C14  1  0.792000  -0.056800  1.098900  1
  C  C15  1  1.040800  -0.094670  1.055150  1
  C  C16  1  0.674900  0.015700  1.080900  1
  C  C17  1  1.093500  0.036200  0.946470  1
  C  C18  1  1.131400  -0.057590  1.001400  1
  C  C19  1  1.208000  0.056800  0.901100  1
  C  C20  1  1.325100  -0.015700  0.919100  1
  H  H21  1  0.573973  0.667202  0.597181  1
  H  H22  1  0.706099  0.375139  0.354773  1
  H  H23  1  0.426027  0.332798  0.402819  1
  H  H24  1  0.912410  0.499095  0.382812  1
  H  H25  1  0.293901  0.624861  0.645227  1
  H  H26  1  0.087590  0.500905  0.617188  1
  H  H27  1  0.926027  0.167202  0.902819  1
  H  H28  1  0.793901  -0.124861  1.145227  1
  H  H29  1  1.073973  -0.167202  1.097181  1
  H  H30  1  0.587590  -0.000905  1.117188  1
  H  H31  1  1.206099  0.124861  0.854773  1
  H  H32  1  1.412410  0.000905  0.882812  1
  S  S33  1  0.803180  0.614640  0.494880  1
  S  S34  1  0.196820  0.385360  0.505120  1
  S  S35  1  0.696820  0.114640  1.005120  1
  S  S36  1  1.303180  -0.114640  0.994880  1
