# generated using pymatgen
data_H(C5S)3
_symmetry_space_group_name_H-M   'P 1'
_cell_length_a   9.84920000
_cell_length_b   10.24790000
_cell_length_c   16.98500000
_cell_angle_alpha   93.41600000
_cell_angle_beta   106.75000000
_cell_angle_gamma   110.50000000
_symmetry_Int_Tables_number   1
_chemical_formula_structural   H(C5S)3
_chemical_formula_sum   'H2 C30 S6'
_cell_volume   1512.83634996
_cell_formula_units_Z   2
loop_
 _symmetry_equiv_pos_site_id
 _symmetry_equiv_pos_as_xyz
  1  'x, y, z'
loop_
 _atom_site_type_symbol
 _atom_site_label
 _atom_site_symmetry_multiplicity
 _atom_site_fract_x
 _atom_site_fract_y
 _atom_site_fract_z
 _atom_site_occupancy
  C  C1  1  0.601000  0.934900  0.531100  1
  C  C2  1  0.481000  0.871900  0.458300  1
  C  C3  1  0.625000  1.049100  0.575200  1
  C  C4  1  0.473400  0.736900  0.418700  1
  C  C5  1  0.375000  0.950900  0.424800  1
  C  C6  1  0.585000  0.706000  0.462800  1
  C  C7  1  0.519000  1.128100  0.541700  1
  C  C8  1  0.399000  1.065100  0.468900  1
  C  C9  1  0.611000  0.577000  0.443000  1
  C  C10  1  0.526600  1.263100  0.581300  1
  C  C11  1  0.730000  0.549800  0.474900  1
  C  C12  1  0.415000  1.294000  0.537200  1
  C  C13  1  0.730000  0.411000  0.458700  1
  C  C14  1  0.609000  0.353000  0.384800  1
  C  C15  1  0.389000  1.423000  0.557000  1
  C  C16  1  0.834000  0.342000  0.486300  1
  C  C17  1  0.584000  0.230000  0.334100  1
  C  C18  1  0.270000  1.450200  0.525100  1
  C  C19  1  0.804000  0.215000  0.437400  1
  C  C20  1  0.689100  0.160700  0.361900  1
  C  C21  1  0.270000  1.589000  0.541300  1
  C  C22  1  0.391000  1.647000  0.615200  1
  C  C23  1  0.693100  0.023500  0.343400  1
  C  C24  1  0.166000  1.658000  0.513700  1
  C  C25  1  0.416000  1.770000  0.665900  1
  C  C26  1  0.805000  -0.008000  0.383800  1
  C  C27  1  0.196000  1.785000  0.562600  1
  C  C28  1  0.310900  1.839300  0.638100  1
  C  C29  1  0.306900  1.976500  0.656600  1
  C  C30  1  0.195000  2.008000  0.616200  1
  H  H31  1  0.722438  1.075483  0.633363  1
  H  H32  1  0.277562  0.924517  0.366637  1
  S  S33  1  0.707800  0.830500  0.552800  1
  S  S34  1  0.292200  1.169500  0.447200  1
  S  S35  1  0.493800  0.448700  0.353900  1
  S  S36  1  0.506200  1.551300  0.646100  1
  S  S37  1  0.925300  0.123200  0.469000  1
  S  S38  1  0.074700  1.876800  0.531000  1
