# generated using pymatgen
data_H7C11
_symmetry_space_group_name_H-M   'P 1'
_cell_length_a   28.22200000
_cell_length_b   18.90400000
_cell_length_c   14.55500000
_cell_angle_alpha   90.04000000
_cell_angle_beta   92.71300000
_cell_angle_gamma   89.93000000
_symmetry_Int_Tables_number   1
_chemical_formula_structural   H7C11
_chemical_formula_sum   'H112 C176'
_cell_volume   7756.50801225
_cell_formula_units_Z   16
loop_
 _symmetry_equiv_pos_site_id
 _symmetry_equiv_pos_as_xyz
  1  'x, y, z'
loop_
 _atom_site_type_symbol
 _atom_site_label
 _atom_site_symmetry_multiplicity
 _atom_site_fract_x
 _atom_site_fract_y
 _atom_site_fract_z
 _atom_site_occupancy
  C  C1  1  0.134560  0.158010  0.508840  1
  C  C2  1  0.180190  0.174940  0.549370  1
  C  C3  1  0.093210  0.183030  0.547140  1
  C  C4  1  0.183570  0.216190  0.633290  1
  C  C5  1  0.221630  0.152350  0.510730  1
  C  C6  1  0.096380  0.226410  0.627900  1
  C  C7  1  0.047340  0.166170  0.507320  1
  C  C8  1  0.140960  0.242200  0.670390  1
  C  C9  1  0.228440  0.228740  0.674940  1
  C  C10  1  0.266580  0.166800  0.551130  1
  C  C11  1  0.053330  0.252190  0.663050  1
  C  C12  1  0.007530  0.190680  0.544220  1
  C  C13  1  0.270000  0.204730  0.637090  1
  C  C14  1  0.308590  0.145090  0.510500  1
  C  C15  1  0.010610  0.235010  0.623040  1
  C  C16  1  0.315620  0.216190  0.678520  1
  C  C17  1  0.353090  0.157620  0.551640  1
  C  C18  1  0.356390  0.193510  0.639100  1
  C  C19  1  0.395660  0.136160  0.510660  1
  C  C20  1  0.402780  0.204640  0.680880  1
  C  C21  1  0.438710  0.148400  0.553060  1
  C  C22  1  0.442080  0.182970  0.639800  1
  C  C23  1  -0.134560  0.158010  0.991160  1
  C  C24  1  -0.180190  0.174940  0.950630  1
  C  C25  1  -0.093210  0.183030  0.952860  1
  C  C26  1  -0.183570  0.216190  0.866710  1
  C  C27  1  -0.221630  0.152350  0.989270  1
  C  C28  1  -0.096380  0.226410  0.872100  1
  C  C29  1  -0.047340  0.166170  0.992680  1
  C  C30  1  -0.140960  0.242200  0.829610  1
  C  C31  1  -0.228440  0.228740  0.825060  1
  C  C32  1  -0.266580  0.166800  0.948870  1
  C  C33  1  -0.053330  0.252190  0.836950  1
  C  C34  1  -0.007530  0.190680  0.955780  1
  C  C35  1  -0.270000  0.204730  0.862910  1
  C  C36  1  -0.308590  0.145090  0.989500  1
  C  C37  1  -0.010610  0.235010  0.876960  1
  C  C38  1  -0.315620  0.216190  0.821480  1
  C  C39  1  -0.353090  0.157620  0.948360  1
  C  C40  1  -0.356390  0.193510  0.860900  1
  C  C41  1  -0.395660  0.136160  0.989340  1
  C  C42  1  -0.402780  0.204640  0.819120  1
  C  C43  1  -0.438710  0.148400  0.946940  1
  C  C44  1  -0.442080  0.182970  0.860200  1
  C  C45  1  0.634560  -0.341990  0.508840  1
  C  C46  1  0.680190  -0.325060  0.549370  1
  C  C47  1  0.593210  -0.316970  0.547140  1
  C  C48  1  0.683570  -0.283810  0.633290  1
  C  C49  1  0.721630  -0.347650  0.510730  1
  C  C50  1  0.596380  -0.273590  0.627900  1
  C  C51  1  0.547340  -0.333830  0.507320  1
  C  C52  1  0.640960  -0.257800  0.670390  1
  C  C53  1  0.728440  -0.271260  0.674940  1
  C  C54  1  0.766580  -0.333200  0.551130  1
  C  C55  1  0.553330  -0.247810  0.663050  1
  C  C56  1  0.507530  -0.309320  0.544220  1
  C  C57  1  0.770000  -0.295270  0.637090  1
  C  C58  1  0.808590  -0.354910  0.510500  1
  C  C59  1  0.510610  -0.264990  0.623040  1
  C  C60  1  0.815620  -0.283810  0.678520  1
  C  C61  1  0.853090  -0.342380  0.551640  1
  C  C62  1  0.856390  -0.306490  0.639100  1
  C  C63  1  0.895660  -0.363840  0.510660  1
  C  C64  1  0.902780  -0.295360  0.680880  1
  C  C65  1  0.938710  -0.351600  0.553060  1
  C  C66  1  0.942080  -0.317030  0.639800  1
  C  C67  1  0.365440  0.658010  0.991160  1
  C  C68  1  0.319810  0.674940  0.950630  1
  C  C69  1  0.406790  0.683030  0.952860  1
  C  C70  1  0.316430  0.716190  0.866710  1
  C  C71  1  0.278370  0.652350  0.989270  1
  C  C72  1  0.403620  0.726410  0.872100  1
  C  C73  1  0.452660  0.666170  0.992680  1
  C  C74  1  0.359040  0.742200  0.829610  1
  C  C75  1  0.271560  0.728740  0.825060  1
  C  C76  1  0.233420  0.666800  0.948870  1
  C  C77  1  0.446670  0.752190  0.836950  1
  C  C78  1  0.492470  0.690680  0.955780  1
  C  C79  1  0.230000  0.704730  0.862910  1
  C  C80  1  0.191410  0.645090  0.989500  1
  C  C81  1  0.489390  0.735010  0.876960  1
  C  C82  1  0.184380  0.716190  0.821480  1
  C  C83  1  0.146910  0.657620  0.948360  1
  C  C84  1  0.143610  0.693510  0.860900  1
  C  C85  1  0.104340  0.636160  0.989340  1
  C  C86  1  0.097220  0.704640  0.819120  1
  C  C87  1  0.061290  0.648400  0.946940  1
  C  C88  1  0.057920  0.682970  0.860200  1
  C  C89  1  -0.134560  -0.158010  0.491160  1
  C  C90  1  -0.180190  -0.174940  0.450630  1
  C  C91  1  -0.093210  -0.183030  0.452860  1
  C  C92  1  -0.183570  -0.216190  0.366710  1
  C  C93  1  -0.221630  -0.152350  0.489270  1
  C  C94  1  -0.096380  -0.226410  0.372100  1
  C  C95  1  -0.047340  -0.166170  0.492680  1
  C  C96  1  -0.140960  -0.242200  0.329610  1
  C  C97  1  -0.228440  -0.228740  0.325060  1
  C  C98  1  -0.266580  -0.166800  0.448870  1
  C  C99  1  -0.053330  -0.252190  0.336950  1
  C  C100  1  -0.007530  -0.190680  0.455780  1
  C  C101  1  -0.270000  -0.204730  0.362910  1
  C  C102  1  -0.308590  -0.145090  0.489500  1
  C  C103  1  -0.010610  -0.235010  0.376960  1
  C  C104  1  -0.315620  -0.216190  0.321480  1
  C  C105  1  -0.353090  -0.157620  0.448360  1
  C  C106  1  -0.356390  -0.193510  0.360900  1
  C  C107  1  -0.395660  -0.136160  0.489340  1
  C  C108  1  -0.402780  -0.204640  0.319120  1
  C  C109  1  -0.438710  -0.148400  0.446940  1
  C  C110  1  -0.442080  -0.182970  0.360200  1
  C  C111  1  0.134560  -0.158010  0.008840  1
  C  C112  1  0.180190  -0.174940  0.049370  1
  C  C113  1  0.093210  -0.183030  0.047140  1
  C  C114  1  0.183570  -0.216190  0.133290  1
  C  C115  1  0.221630  -0.152350  0.010730  1
  C  C116  1  0.096380  -0.226410  0.127900  1
  C  C117  1  0.047340  -0.166170  0.007320  1
  C  C118  1  0.140960  -0.242200  0.170390  1
  C  C119  1  0.228440  -0.228740  0.174940  1
  C  C120  1  0.266580  -0.166800  0.051130  1
  C  C121  1  0.053330  -0.252190  0.163050  1
  C  C122  1  0.007530  -0.190680  0.044220  1
  C  C123  1  0.270000  -0.204730  0.137090  1
  C  C124  1  0.308590  -0.145090  0.010500  1
  C  C125  1  0.010610  -0.235010  0.123040  1
  C  C126  1  0.315620  -0.216190  0.178520  1
  C  C127  1  0.353090  -0.157620  0.051640  1
  C  C128  1  0.356390  -0.193510  0.139100  1
  C  C129  1  0.395660  -0.136160  0.010660  1
  C  C130  1  0.402780  -0.204640  0.180880  1
  C  C131  1  0.438710  -0.148400  0.053060  1
  C  C132  1  0.442080  -0.182970  0.139800  1
  C  C133  1  0.365440  0.341990  0.491160  1
  C  C134  1  0.319810  0.325060  0.450630  1
  C  C135  1  0.406790  0.316970  0.452860  1
  C  C136  1  0.316430  0.283810  0.366710  1
  C  C137  1  0.278370  0.347650  0.489270  1
  C  C138  1  0.403620  0.273590  0.372100  1
  C  C139  1  0.452660  0.333830  0.492680  1
  C  C140  1  0.359040  0.257800  0.329610  1
  C  C141  1  0.271560  0.271260  0.325060  1
  C  C142  1  0.233420  0.333200  0.448870  1
  C  C143  1  0.446670  0.247810  0.336950  1
  C  C144  1  0.492470  0.309320  0.455780  1
  C  C145  1  0.230000  0.295270  0.362910  1
  C  C146  1  0.191410  0.354910  0.489500  1
  C  C147  1  0.489390  0.264990  0.376960  1
  C  C148  1  0.184380  0.283810  0.321480  1
  C  C149  1  0.146910  0.342380  0.448360  1
  C  C150  1  0.143610  0.306490  0.360900  1
  C  C151  1  0.104340  0.363840  0.489340  1
  C  C152  1  0.097220  0.295360  0.319120  1
  C  C153  1  0.061290  0.351600  0.446940  1
  C  C154  1  0.057920  0.317030  0.360200  1
  C  C155  1  -0.365440  0.341990  0.008840  1
  C  C156  1  -0.319810  0.325060  0.049370  1
  C  C157  1  -0.406790  0.316970  0.047140  1
  C  C158  1  -0.316430  0.283810  0.133290  1
  C  C159  1  -0.278370  0.347650  0.010730  1
  C  C160  1  -0.403620  0.273590  0.127900  1
  C  C161  1  -0.452660  0.333830  0.007320  1
  C  C162  1  -0.359040  0.257800  0.170390  1
  C  C163  1  -0.271560  0.271260  0.174940  1
  C  C164  1  -0.233420  0.333200  0.051130  1
  C  C165  1  -0.446670  0.247810  0.163050  1
  C  C166  1  -0.492470  0.309320  0.044220  1
  C  C167  1  -0.230000  0.295270  0.137090  1
  C  C168  1  -0.191410  0.354910  0.010500  1
  C  C169  1  -0.489390  0.264990  0.123040  1
  C  C170  1  -0.184380  0.283810  0.178520  1
  C  C171  1  -0.146910  0.342380  0.051640  1
  C  C172  1  -0.143610  0.306490  0.139100  1
  C  C173  1  -0.104340  0.363840  0.010660  1
  C  C174  1  -0.097220  0.295360  0.180880  1
  C  C175  1  -0.061290  0.351600  0.053060  1
  C  C176  1  -0.057920  0.317030  0.139800  1
  H  H177  1  0.131185  0.124929  0.446676  1
  H  H178  1  0.218762  0.122081  0.446138  1
  H  H179  1  0.042464  0.132882  0.445587  1
  H  H180  1  0.142507  0.275025  0.732890  1
  H  H181  1  0.231143  0.258598  0.739867  1
  H  H182  1  0.053064  0.286877  0.723735  1
  H  H183  1  -0.026619  0.174899  0.510843  1
  H  H184  1  0.306566  0.117259  0.444037  1
  H  H185  1  -0.021090  0.256722  0.654076  1
  H  H186  1  0.319592  0.244150  0.744736  1
  H  H187  1  0.395275  0.109097  0.443701  1
  H  H188  1  0.408506  0.231128  0.747794  1
  H  H189  1  0.470246  0.130653  0.517820  1
  H  H190  1  0.476348  0.193330  0.676470  1
  H  H191  1  -0.131187  0.124947  1.053291  1
  H  H192  1  -0.218763  0.122097  1.053828  1
  H  H193  1  -0.042466  0.132897  1.054384  1
  H  H194  1  -0.142506  0.275005  0.767147  1
  H  H195  1  -0.231142  0.258583  0.760167  1
  H  H196  1  -0.053064  0.286853  0.776306  1
  H  H197  1  0.026633  0.174893  0.989171  1
  H  H198  1  -0.306567  0.117274  1.055928  1
  H  H199  1  0.021060  0.256701  0.845953  1
  H  H200  1  -0.319590  0.244137  0.755295  1
  H  H201  1  -0.395275  0.109112  1.056262  1
  H  H202  1  -0.408503  0.231117  0.752233  1
  H  H203  1  -0.470221  0.130667  0.982151  1
  H  H204  1  -0.476357  0.193333  0.823521  1
  H  H205  1  0.631185  -0.375071  0.446676  1
  H  H206  1  0.718762  -0.377919  0.446138  1
  H  H207  1  0.542464  -0.367118  0.445587  1
  H  H208  1  0.642507  -0.224975  0.732890  1
  H  H209  1  0.731143  -0.241402  0.739867  1
  H  H210  1  0.553064  -0.213123  0.723735  1
  H  H211  1  0.473381  -0.325101  0.510843  1
  H  H212  1  0.806566  -0.382741  0.444037  1
  H  H213  1  0.478910  -0.243278  0.654076  1
  H  H214  1  0.819592  -0.255850  0.744736  1
  H  H215  1  0.895275  -0.390903  0.443701  1
  H  H216  1  0.908506  -0.268872  0.747794  1
  H  H217  1  0.970246  -0.369347  0.517820  1
  H  H218  1  0.976348  -0.306670  0.676470  1
  H  H219  1  0.368813  0.624947  1.053291  1
  H  H220  1  0.281237  0.622097  1.053828  1
  H  H221  1  0.457534  0.632897  1.054384  1
  H  H222  1  0.357494  0.775005  0.767147  1
  H  H223  1  0.268858  0.758583  0.760167  1
  H  H224  1  0.446936  0.786853  0.776306  1
  H  H225  1  0.526633  0.674893  0.989171  1
  H  H226  1  0.193433  0.617274  1.055928  1
  H  H227  1  0.521060  0.756701  0.845953  1
  H  H228  1  0.180410  0.744137  0.755295  1
  H  H229  1  0.104725  0.609112  1.056262  1
  H  H230  1  0.091497  0.731117  0.752233  1
  H  H231  1  0.029779  0.630667  0.982151  1
  H  H232  1  0.023643  0.693333  0.823521  1
  H  H233  1  -0.131185  -0.124929  0.553324  1
  H  H234  1  -0.218762  -0.122081  0.553862  1
  H  H235  1  -0.042464  -0.132882  0.554413  1
  H  H236  1  -0.142507  -0.275025  0.267110  1
  H  H237  1  -0.231143  -0.258598  0.260133  1
  H  H238  1  -0.053064  -0.286877  0.276265  1
  H  H239  1  0.026619  -0.174899  0.489157  1
  H  H240  1  -0.306566  -0.117259  0.555963  1
  H  H241  1  0.021090  -0.256722  0.345924  1
  H  H242  1  -0.319592  -0.244150  0.255264  1
  H  H243  1  -0.395275  -0.109097  0.556299  1
  H  H244  1  -0.408506  -0.231128  0.252206  1
  H  H245  1  -0.470246  -0.130653  0.482180  1
  H  H246  1  -0.476348  -0.193330  0.323530  1
  H  H247  1  0.131187  -0.124947  -0.053291  1
  H  H248  1  0.218763  -0.122097  -0.053828  1
  H  H249  1  0.042466  -0.132897  -0.054384  1
  H  H250  1  0.142506  -0.275005  0.232853  1
  H  H251  1  0.231142  -0.258583  0.239833  1
  H  H252  1  0.053064  -0.286853  0.223694  1
  H  H253  1  -0.026633  -0.174893  0.010829  1
  H  H254  1  0.306567  -0.117274  -0.055928  1
  H  H255  1  -0.021060  -0.256701  0.154047  1
  H  H256  1  0.319590  -0.244137  0.244705  1
  H  H257  1  0.395275  -0.109112  -0.056262  1
  H  H258  1  0.408503  -0.231117  0.247767  1
  H  H259  1  0.470221  -0.130667  0.017849  1
  H  H260  1  0.476357  -0.193333  0.176479  1
  H  H261  1  0.368815  0.375071  0.553324  1
  H  H262  1  0.281238  0.377919  0.553862  1
  H  H263  1  0.457536  0.367118  0.554413  1
  H  H264  1  0.357493  0.224975  0.267110  1
  H  H265  1  0.268857  0.241402  0.260133  1
  H  H266  1  0.446936  0.213123  0.276265  1
  H  H267  1  0.526619  0.325101  0.489157  1
  H  H268  1  0.193434  0.382741  0.555963  1
  H  H269  1  0.521090  0.243278  0.345924  1
  H  H270  1  0.180408  0.255850  0.255264  1
  H  H271  1  0.104725  0.390903  0.556299  1
  H  H272  1  0.091494  0.268872  0.252206  1
  H  H273  1  0.029754  0.369347  0.482180  1
  H  H274  1  0.023652  0.306670  0.323530  1
  H  H275  1  -0.368813  0.375053  -0.053291  1
  H  H276  1  -0.281237  0.377903  -0.053828  1
  H  H277  1  -0.457534  0.367103  -0.054384  1
  H  H278  1  -0.357494  0.224995  0.232853  1
  H  H279  1  -0.268858  0.241417  0.239833  1
  H  H280  1  -0.446936  0.213147  0.223694  1
  H  H281  1  -0.526633  0.325107  0.010829  1
  H  H282  1  -0.193433  0.382726  -0.055928  1
  H  H283  1  -0.521060  0.243299  0.154047  1
  H  H284  1  -0.180410  0.255863  0.244705  1
  H  H285  1  -0.104725  0.390888  -0.056262  1
  H  H286  1  -0.091497  0.268883  0.247767  1
  H  H287  1  -0.029779  0.369333  0.017849  1
  H  H288  1  -0.023643  0.306667  0.176479  1
