# generated using pymatgen
data_H5C9S
_symmetry_space_group_name_H-M   'P 1'
_cell_length_a   6.33760000
_cell_length_b   13.09270000
_cell_length_c   23.14600000
_cell_angle_alpha   87.71000000
_cell_angle_beta   87.46000000
_cell_angle_gamma   81.20000000
_symmetry_Int_Tables_number   1
_chemical_formula_structural   H5C9S
_chemical_formula_sum   'H30 C54 S6'
_cell_volume   1895.02545033
_cell_formula_units_Z   6
loop_
 _symmetry_equiv_pos_site_id
 _symmetry_equiv_pos_as_xyz
  1  'x, y, z'
loop_
 _atom_site_type_symbol
 _atom_site_label
 _atom_site_symmetry_multiplicity
 _atom_site_fract_x
 _atom_site_fract_y
 _atom_site_fract_z
 _atom_site_occupancy
  C  C1  1  0.187400  0.836600  0.387500  1
  C  C2  1  0.275100  0.881200  0.337800  1
  C  C3  1  0.023600  0.779600  0.387900  1
  C  C4  1  0.450200  0.938200  0.350700  1
  C  C5  1  0.193900  0.864400  0.283900  1
  C  C6  1  0.482200  0.931500  0.410100  1
  C  C7  1  -0.061800  0.763500  0.334200  1
  C  C8  1  0.575200  0.993900  0.314100  1
  C  C9  1  0.030500  0.807700  0.284400  1
  C  C10  1  0.647400  0.974900  0.433200  1
  C  C11  1  -0.233800  0.707800  0.321100  1
  C  C12  1  0.735500  1.038000  0.338000  1
  C  C13  1  0.769500  1.031100  0.395500  1
  C  C14  1  -0.263300  0.711000  0.260500  1
  C  C15  1  -0.366100  0.655300  0.357500  1
  C  C16  1  -0.419500  0.664100  0.237600  1
  C  C17  1  -0.524600  0.610700  0.333800  1
  C  C18  1  -0.548700  0.613100  0.274900  1
  C  C19  1  -0.187400  1.163400  0.612500  1
  C  C20  1  -0.275100  1.118800  0.662200  1
  C  C21  1  -0.023600  1.220400  0.612100  1
  C  C22  1  -0.450200  1.061800  0.649300  1
  C  C23  1  -0.193900  1.135600  0.716100  1
  C  C24  1  -0.482200  1.068500  0.589900  1
  C  C25  1  0.061800  1.236500  0.665800  1
  C  C26  1  -0.575200  1.006100  0.685900  1
  C  C27  1  -0.030500  1.192300  0.715600  1
  C  C28  1  -0.647400  1.025100  0.566800  1
  C  C29  1  0.233800  1.292200  0.678900  1
  C  C30  1  -0.735500  0.962000  0.662000  1
  C  C31  1  -0.769500  0.968900  0.604500  1
  C  C32  1  0.263300  1.289000  0.739500  1
  C  C33  1  0.366100  1.344700  0.642500  1
  C  C34  1  0.419500  1.335900  0.762400  1
  C  C35  1  0.524600  1.389300  0.666200  1
  C  C36  1  0.548700  1.386900  0.725100  1
  C  C37  1  0.411600  0.427800  0.034500  1
  C  C38  1  0.329000  0.456500  -0.020500  1
  C  C39  1  0.583400  0.470500  0.055500  1
  C  C40  1  0.156700  0.399600  -0.030300  1
  C  C41  1  0.416600  0.529500  -0.055500  1
  C  C42  1  0.110200  0.334900  0.016300  1
  C  C43  1  0.671000  0.543500  0.020500  1
  C  C44  1  0.028900  0.401300  -0.079800  1
  C  C45  1  0.588400  0.572200  -0.034500  1
  C  C46  1  -0.048800  0.274800  0.017300  1
  C  C47  1  0.843300  0.600400  0.030300  1
  C  C48  1  -0.128400  0.340000  -0.079000  1
  C  C49  1  -0.174300  0.279500  -0.031400  1
  C  C50  1  0.889800  0.665100  -0.016300  1
  C  C51  1  0.971100  0.598700  0.079800  1
  C  C52  1  1.048800  0.725200  -0.017300  1
  C  C53  1  1.128400  0.660000  0.079000  1
  C  C54  1  1.174300  0.720500  0.031400  1
  H  H55  1  -0.036279  0.748362  0.429219  1
  H  H56  1  0.256262  0.894670  0.242629  1
  H  H57  1  0.547976  1.002846  0.267442  1
  H  H58  1  0.680239  0.965147  0.479525  1
  H  H59  1  0.840275  1.080308  0.310126  1
  H  H60  1  0.895249  1.070814  0.411450  1
  H  H61  1  -0.345603  0.649120  0.404517  1
  H  H62  1  -0.440575  0.667300  0.190611  1
  H  H63  1  -0.633983  0.572449  0.362448  1
  H  H64  1  -0.672466  0.573863  0.257461  1
  H  H65  1  0.036279  1.251638  0.570781  1
  H  H66  1  -0.256262  1.105330  0.757371  1
  H  H67  1  -0.547976  0.997154  0.732558  1
  H  H68  1  -0.680239  1.034853  0.520475  1
  H  H69  1  -0.840275  0.919692  0.689874  1
  H  H70  1  -0.895249  0.929186  0.588550  1
  H  H71  1  0.345603  1.350880  0.595483  1
  H  H72  1  0.440575  1.332700  0.809389  1
  H  H73  1  0.633983  1.427551  0.637552  1
  H  H74  1  0.672466  1.426137  0.742539  1
  H  H75  1  0.647657  0.447377  0.098236  1
  H  H76  1  0.352343  0.552623  -0.098236  1
  H  H77  1  0.051721  0.450036  -0.118711  1
  H  H78  1  -0.074577  0.224939  0.055542  1
  H  H79  1  -0.221220  0.339333  -0.117994  1
  H  H80  1  -0.308933  0.235670  -0.032264  1
  H  H81  1  0.948279  0.549964  0.118711  1
  H  H82  1  1.074577  0.775061  -0.055542  1
  H  H83  1  1.221220  0.660667  0.117994  1
  H  H84  1  1.308933  0.764330  0.032264  1
  S  S85  1  0.312200  0.861600  0.450110  1
  S  S86  1  -0.089900  0.779800  0.220950  1
  S  S87  1  -0.312200  1.138400  0.549890  1
  S  S88  1  0.089900  1.220200  0.779050  1
  S  S89  1  0.285100  0.338700  0.072900  1
  S  S90  1  0.714900  0.661300  -0.072900  1
