# generated using pymatgen
data_H5C9S
_symmetry_space_group_name_H-M   'P 1'
_cell_length_a   11.18430000
_cell_length_b   14.83670000
_cell_length_c   15.77320000
_cell_angle_alpha   63.05400000
_cell_angle_beta   77.06400000
_cell_angle_gamma   89.14000000
_symmetry_Int_Tables_number   1
_chemical_formula_structural   H5C9S
_chemical_formula_sum   'H20 C36 S4'
_cell_volume   2262.72030621
_cell_formula_units_Z   4
loop_
 _symmetry_equiv_pos_site_id
 _symmetry_equiv_pos_as_xyz
  1  'x, y, z'
loop_
 _atom_site_type_symbol
 _atom_site_label
 _atom_site_symmetry_multiplicity
 _atom_site_fract_x
 _atom_site_fract_y
 _atom_site_fract_z
 _atom_site_occupancy
  C  C1  1  0.068430  0.419370  0.624680  1
  C  C2  1  0.082920  0.527130  0.564830  1
  C  C3  1  0.156900  0.359230  0.610940  1
  C  C4  1  -0.021600  0.574240  0.592260  1
  C  C5  1  0.188900  0.572580  0.492080  1
  C  C6  1  -0.109610  0.506640  0.669650  1
  C  C7  1  0.267400  0.404740  0.536610  1
  C  C8  1  0.283580  0.513510  0.476790  1
  C  C9  1  0.361450  0.345600  0.519240  1
  C  C10  1  0.393480  0.559780  0.402550  1
  C  C11  1  0.473990  0.392320  0.448150  1
  C  C12  1  0.489800  0.501090  0.389130  1
  C  C13  1  0.570070  0.333910  0.431990  1
  C  C14  1  0.600200  0.547760  0.316280  1
  C  C15  1  0.674080  0.381750  0.358290  1
  C  C16  1  0.690390  0.489650  0.299540  1
  C  C17  1  0.805890  0.523340  0.226530  1
  C  C18  1  0.873280  0.445320  0.229470  1
  C  C19  1  0.931570  0.580630  0.375320  1
  C  C20  1  0.917080  0.472870  0.435170  1
  C  C21  1  0.843100  0.640770  0.389060  1
  C  C22  1  1.021600  0.425760  0.407740  1
  C  C23  1  0.811100  0.427420  0.507920  1
  C  C24  1  1.109610  0.493360  0.330350  1
  C  C25  1  0.732600  0.595260  0.463390  1
  C  C26  1  0.716420  0.486490  0.523210  1
  C  C27  1  0.638550  0.654400  0.480760  1
  C  C28  1  0.606520  0.440220  0.597450  1
  C  C29  1  0.526010  0.607680  0.551850  1
  C  C30  1  0.510200  0.498910  0.610870  1
  C  C31  1  0.429930  0.666090  0.568010  1
  C  C32  1  0.399800  0.452240  0.683720  1
  C  C33  1  0.325920  0.618250  0.641710  1
  C  C34  1  0.309610  0.510350  0.700460  1
  C  C35  1  0.194110  0.476660  0.773470  1
  C  C36  1  0.126720  0.554680  0.770530  1
  H  H37  1  0.139677  0.276631  0.658310  1
  H  H38  1  -0.033343  0.655828  0.556726  1
  H  H39  1  0.197864  0.655489  0.446500  1
  H  H40  1  -0.188245  0.543438  0.691439  1
  H  H41  1  0.346895  0.262270  0.561527  1
  H  H42  1  0.404160  0.642325  0.354718  1
  H  H43  1  0.563883  0.251020  0.476879  1
  H  H44  1  0.616222  0.630829  0.271796  1
  H  H45  1  0.839977  0.602489  0.172718  1
  H  H46  1  0.960937  0.471356  0.173147  1
  H  H47  1  0.860323  0.723369  0.341690  1
  H  H48  1  1.033343  0.344172  0.443274  1
  H  H49  1  0.802136  0.344511  0.553500  1
  H  H50  1  1.188245  0.456562  0.308561  1
  H  H51  1  0.653105  0.737730  0.438473  1
  H  H52  1  0.595840  0.357675  0.645282  1
  H  H53  1  0.436117  0.748980  0.523121  1
  H  H54  1  0.383778  0.369171  0.728204  1
  H  H55  1  0.160023  0.397511  0.827282  1
  H  H56  1  0.039063  0.528644  0.826853  1
  S  S57  1  -0.072140  0.380320  0.712270  1
  S  S58  1  0.800850  0.325770  0.322250  1
  S  S59  1  1.072140  0.619680  0.287730  1
  S  S60  1  0.199150  0.674230  0.677750  1
