# generated using pymatgen
data_H7C11
_symmetry_space_group_name_H-M   'P 1'
_cell_length_a   30.51100000
_cell_length_b   7.38700000
_cell_length_c   32.10600000
_cell_angle_alpha   90.00000000
_cell_angle_beta   118.18600000
_cell_angle_gamma   90.00000000
_symmetry_Int_Tables_number   1
_chemical_formula_structural   H7C11
_chemical_formula_sum   'H112 C176'
_cell_volume   6378.12603556
_cell_formula_units_Z   16
loop_
 _symmetry_equiv_pos_site_id
 _symmetry_equiv_pos_as_xyz
  1  'x, y, z'
loop_
 _atom_site_type_symbol
 _atom_site_label
 _atom_site_symmetry_multiplicity
 _atom_site_fract_x
 _atom_site_fract_y
 _atom_site_fract_z
 _atom_site_occupancy
  C  C1  1  0.367880  0.402100  0.120630  1
  C  C2  1  0.329480  0.426100  0.073090  1
  C  C3  1  0.414280  0.331900  0.130210  1
  C  C4  1  0.339070  0.373600  0.034780  1
  C  C5  1  0.283140  0.500200  0.062340  1
  C  C6  1  0.423590  0.277800  0.091950  1
  C  C7  1  0.453260  0.308800  0.177410  1
  C  C8  1  0.386150  0.298900  0.045060  1
  C  C9  1  0.301640  0.396900  -0.011520  1
  C  C10  1  0.245650  0.524000  0.015810  1
  C  C11  1  0.471310  0.203800  0.103370  1
  C  C12  1  0.497720  0.236700  0.186210  1
  C  C13  1  0.255200  0.470100  -0.022280  1
  C  C14  1  0.198860  0.599400  0.004460  1
  C  C15  1  0.506860  0.183200  0.148640  1
  C  C16  1  0.217430  0.491800  -0.069210  1
  C  C17  1  0.162120  0.621200  -0.041800  1
  C  C18  1  0.171760  0.564700  -0.079700  1
  C  C19  1  0.114430  0.698900  -0.053740  1
  C  C20  1  0.132920  0.588100  -0.127260  1
  C  C21  1  0.079440  0.718000  -0.099200  1
  C  C22  1  0.088610  0.661900  -0.136660  1
  C  C23  1  0.632120  0.402100  0.379370  1
  C  C24  1  0.670520  0.426100  0.426910  1
  C  C25  1  0.585720  0.331900  0.369790  1
  C  C26  1  0.660930  0.373600  0.465220  1
  C  C27  1  0.716860  0.500200  0.437660  1
  C  C28  1  0.576410  0.277800  0.408050  1
  C  C29  1  0.546740  0.308800  0.322590  1
  C  C30  1  0.613850  0.298900  0.454940  1
  C  C31  1  0.698360  0.396900  0.511520  1
  C  C32  1  0.754350  0.524000  0.484190  1
  C  C33  1  0.528690  0.203800  0.396630  1
  C  C34  1  0.502280  0.236700  0.313790  1
  C  C35  1  0.744800  0.470100  0.522280  1
  C  C36  1  0.801140  0.599400  0.495540  1
  C  C37  1  0.493140  0.183200  0.351360  1
  C  C38  1  0.782570  0.491800  0.569210  1
  C  C39  1  0.837880  0.621200  0.541800  1
  C  C40  1  0.828240  0.564700  0.579700  1
  C  C41  1  0.885570  0.698900  0.553740  1
  C  C42  1  0.867080  0.588100  0.627260  1
  C  C43  1  0.920560  0.718000  0.599200  1
  C  C44  1  0.911390  0.661900  0.636660  1
  C  C45  1  0.867880  -0.097900  0.120630  1
  C  C46  1  0.829480  -0.073900  0.073090  1
  C  C47  1  0.914280  -0.168100  0.130210  1
  C  C48  1  0.839070  -0.126400  0.034780  1
  C  C49  1  0.783140  0.000200  0.062340  1
  C  C50  1  0.923590  -0.222200  0.091950  1
  C  C51  1  0.953260  -0.191200  0.177410  1
  C  C52  1  0.886150  -0.201100  0.045060  1
  C  C53  1  0.801640  -0.103100  -0.011520  1
  C  C54  1  0.745650  0.024000  0.015810  1
  C  C55  1  0.971310  -0.296200  0.103370  1
  C  C56  1  0.997720  -0.263300  0.186210  1
  C  C57  1  0.755200  -0.029900  -0.022280  1
  C  C58  1  0.698860  0.099400  0.004460  1
  C  C59  1  1.006860  -0.316800  0.148640  1
  C  C60  1  0.717430  -0.008200  -0.069210  1
  C  C61  1  0.662120  0.121200  -0.041800  1
  C  C62  1  0.671760  0.064700  -0.079700  1
  C  C63  1  0.614430  0.198900  -0.053740  1
  C  C64  1  0.632920  0.088100  -0.127260  1
  C  C65  1  0.579440  0.218000  -0.099200  1
  C  C66  1  0.588610  0.161900  -0.136660  1
  C  C67  1  0.132120  -0.097900  0.379370  1
  C  C68  1  0.170520  -0.073900  0.426910  1
  C  C69  1  0.085720  -0.168100  0.369790  1
  C  C70  1  0.160930  -0.126400  0.465220  1
  C  C71  1  0.216860  0.000200  0.437660  1
  C  C72  1  0.076410  -0.222200  0.408050  1
  C  C73  1  0.046740  -0.191200  0.322590  1
  C  C74  1  0.113850  -0.201100  0.454940  1
  C  C75  1  0.198360  -0.103100  0.511520  1
  C  C76  1  0.254350  0.024000  0.484190  1
  C  C77  1  0.028690  -0.296200  0.396630  1
  C  C78  1  0.002280  -0.263300  0.313790  1
  C  C79  1  0.244800  -0.029900  0.522280  1
  C  C80  1  0.301140  0.099400  0.495540  1
  C  C81  1  -0.006860  -0.316800  0.351360  1
  C  C82  1  0.282570  -0.008200  0.569210  1
  C  C83  1  0.337880  0.121200  0.541800  1
  C  C84  1  0.328240  0.064700  0.579700  1
  C  C85  1  0.385570  0.198900  0.553740  1
  C  C86  1  0.367080  0.088100  0.627260  1
  C  C87  1  0.420560  0.218000  0.599200  1
  C  C88  1  0.411390  0.161900  0.636660  1
  C  C89  1  0.632120  0.597900  -0.120630  1
  C  C90  1  0.670520  0.573900  -0.073090  1
  C  C91  1  0.585720  0.668100  -0.130210  1
  C  C92  1  0.660930  0.626400  -0.034780  1
  C  C93  1  0.716860  0.499800  -0.062340  1
  C  C94  1  0.576410  0.722200  -0.091950  1
  C  C95  1  0.546740  0.691200  -0.177410  1
  C  C96  1  0.613850  0.701100  -0.045060  1
  C  C97  1  0.698360  0.603100  0.011520  1
  C  C98  1  0.754350  0.476000  -0.015810  1
  C  C99  1  0.528690  0.796200  -0.103370  1
  C  C100  1  0.502280  0.763300  -0.186210  1
  C  C101  1  0.744800  0.529900  0.022280  1
  C  C102  1  0.801140  0.400600  -0.004460  1
  C  C103  1  0.493140  0.816800  -0.148640  1
  C  C104  1  0.782570  0.508200  0.069210  1
  C  C105  1  0.837880  0.378800  0.041800  1
  C  C106  1  0.828240  0.435300  0.079700  1
  C  C107  1  0.885570  0.301100  0.053740  1
  C  C108  1  0.867080  0.411900  0.127260  1
  C  C109  1  0.920560  0.282000  0.099200  1
  C  C110  1  0.911390  0.338100  0.136660  1
  C  C111  1  0.367880  0.597900  0.620630  1
  C  C112  1  0.329480  0.573900  0.573090  1
  C  C113  1  0.414280  0.668100  0.630210  1
  C  C114  1  0.339070  0.626400  0.534780  1
  C  C115  1  0.283140  0.499800  0.562340  1
  C  C116  1  0.423590  0.722200  0.591950  1
  C  C117  1  0.453260  0.691200  0.677410  1
  C  C118  1  0.386150  0.701100  0.545060  1
  C  C119  1  0.301640  0.603100  0.488480  1
  C  C120  1  0.245650  0.476000  0.515810  1
  C  C121  1  0.471310  0.796200  0.603370  1
  C  C122  1  0.497720  0.763300  0.686210  1
  C  C123  1  0.255200  0.529900  0.477720  1
  C  C124  1  0.198860  0.400600  0.504460  1
  C  C125  1  0.506860  0.816800  0.648640  1
  C  C126  1  0.217430  0.508200  0.430790  1
  C  C127  1  0.162120  0.378800  0.458200  1
  C  C128  1  0.171760  0.435300  0.420300  1
  C  C129  1  0.114430  0.301100  0.446260  1
  C  C130  1  0.132920  0.411900  0.372740  1
  C  C131  1  0.079440  0.282000  0.400800  1
  C  C132  1  0.088610  0.338100  0.363340  1
  C  C133  1  0.132120  0.097900  -0.120630  1
  C  C134  1  0.170520  0.073900  -0.073090  1
  C  C135  1  0.085720  0.168100  -0.130210  1
  C  C136  1  0.160930  0.126400  -0.034780  1
  C  C137  1  0.216860  -0.000200  -0.062340  1
  C  C138  1  0.076410  0.222200  -0.091950  1
  C  C139  1  0.046740  0.191200  -0.177410  1
  C  C140  1  0.113850  0.201100  -0.045060  1
  C  C141  1  0.198360  0.103100  0.011520  1
  C  C142  1  0.254350  -0.024000  -0.015810  1
  C  C143  1  0.028690  0.296200  -0.103370  1
  C  C144  1  0.002280  0.263300  -0.186210  1
  C  C145  1  0.244800  0.029900  0.022280  1
  C  C146  1  0.301140  -0.099400  -0.004460  1
  C  C147  1  -0.006860  0.316800  -0.148640  1
  C  C148  1  0.282570  0.008200  0.069210  1
  C  C149  1  0.337880  -0.121200  0.041800  1
  C  C150  1  0.328240  -0.064700  0.079700  1
  C  C151  1  0.385570  -0.198900  0.053740  1
  C  C152  1  0.367080  -0.088100  0.127260  1
  C  C153  1  0.420560  -0.218000  0.099200  1
  C  C154  1  0.411390  -0.161900  0.136660  1
  C  C155  1  -0.132120  0.097900  -0.379370  1
  C  C156  1  -0.170520  0.073900  -0.426910  1
  C  C157  1  -0.085720  0.168100  -0.369790  1
  C  C158  1  -0.160930  0.126400  -0.465220  1
  C  C159  1  -0.216860  -0.000200  -0.437660  1
  C  C160  1  -0.076410  0.222200  -0.408050  1
  C  C161  1  -0.046740  0.191200  -0.322590  1
  C  C162  1  -0.113850  0.201100  -0.454940  1
  C  C163  1  -0.198360  0.103100  -0.511520  1
  C  C164  1  -0.254350  -0.024000  -0.484190  1
  C  C165  1  -0.028690  0.296200  -0.396630  1
  C  C166  1  -0.002280  0.263300  -0.313790  1
  C  C167  1  -0.244800  0.029900  -0.522280  1
  C  C168  1  -0.301140  -0.099400  -0.495540  1
  C  C169  1  0.006860  0.316800  -0.351360  1
  C  C170  1  -0.282570  0.008200  -0.569210  1
  C  C171  1  -0.337880  -0.121200  -0.541800  1
  C  C172  1  -0.328240  -0.064700  -0.579700  1
  C  C173  1  -0.385570  -0.198900  -0.553740  1
  C  C174  1  -0.367080  -0.088100  -0.627260  1
  C  C175  1  -0.420560  -0.218000  -0.599200  1
  C  C176  1  -0.411390  -0.161900  -0.636660  1
  H  H177  1  0.361566  0.438564  0.150590  1
  H  H178  1  0.275931  0.541172  0.091485  1
  H  H179  1  0.448856  0.348177  0.208269  1
  H  H180  1  0.393741  0.256693  0.016232  1
  H  H181  1  0.309007  0.356098  -0.040580  1
  H  H182  1  0.481137  0.160681  0.076037  1
  H  H183  1  0.526048  0.221782  0.223401  1
  H  H184  1  0.190692  0.642964  0.032834  1
  H  H185  1  0.542509  0.124090  0.154782  1
  H  H186  1  0.223843  0.450239  -0.098790  1
  H  H187  1  0.104267  0.745792  -0.026917  1
  H  H188  1  0.137331  0.547457  -0.158033  1
  H  H189  1  0.043851  0.778604  -0.105647  1
  H  H190  1  0.060614  0.676002  -0.173994  1
  H  H191  1  0.638434  0.438564  0.349410  1
  H  H192  1  0.724069  0.541172  0.408515  1
  H  H193  1  0.551144  0.348177  0.291731  1
  H  H194  1  0.606259  0.256693  0.483768  1
  H  H195  1  0.690993  0.356098  0.540580  1
  H  H196  1  0.518863  0.160681  0.423963  1
  H  H197  1  0.473952  0.221782  0.276599  1
  H  H198  1  0.809308  0.642964  0.467166  1
  H  H199  1  0.457491  0.124090  0.345218  1
  H  H200  1  0.776157  0.450239  0.598790  1
  H  H201  1  0.895733  0.745792  0.526917  1
  H  H202  1  0.862669  0.547457  0.658033  1
  H  H203  1  0.956149  0.778604  0.605647  1
  H  H204  1  0.939386  0.676002  0.673994  1
  H  H205  1  0.861566  -0.061436  0.150590  1
  H  H206  1  0.775931  0.041172  0.091485  1
  H  H207  1  0.948856  -0.151823  0.208269  1
  H  H208  1  0.893741  -0.243307  0.016232  1
  H  H209  1  0.809007  -0.143902  -0.040580  1
  H  H210  1  0.981137  -0.339319  0.076037  1
  H  H211  1  1.026048  -0.278218  0.223401  1
  H  H212  1  0.690692  0.142964  0.032834  1
  H  H213  1  1.042509  -0.375910  0.154782  1
  H  H214  1  0.723843  -0.049761  -0.098790  1
  H  H215  1  0.604267  0.245792  -0.026917  1
  H  H216  1  0.637331  0.047457  -0.158033  1
  H  H217  1  0.543851  0.278604  -0.105647  1
  H  H218  1  0.560614  0.176002  -0.173994  1
  H  H219  1  0.138434  -0.061436  0.349410  1
  H  H220  1  0.224069  0.041172  0.408515  1
  H  H221  1  0.051144  -0.151823  0.291731  1
  H  H222  1  0.106259  -0.243307  0.483768  1
  H  H223  1  0.190993  -0.143902  0.540580  1
  H  H224  1  0.018863  -0.339319  0.423963  1
  H  H225  1  -0.026048  -0.278218  0.276599  1
  H  H226  1  0.309308  0.142964  0.467166  1
  H  H227  1  -0.042509  -0.375910  0.345218  1
  H  H228  1  0.276157  -0.049761  0.598790  1
  H  H229  1  0.395733  0.245792  0.526917  1
  H  H230  1  0.362669  0.047457  0.658033  1
  H  H231  1  0.456149  0.278604  0.605647  1
  H  H232  1  0.439386  0.176002  0.673994  1
  H  H233  1  0.638434  0.561436  -0.150590  1
  H  H234  1  0.724069  0.458828  -0.091485  1
  H  H235  1  0.551144  0.651823  -0.208269  1
  H  H236  1  0.606259  0.743307  -0.016232  1
  H  H237  1  0.690993  0.643902  0.040580  1
  H  H238  1  0.518863  0.839319  -0.076037  1
  H  H239  1  0.473952  0.778218  -0.223401  1
  H  H240  1  0.809308  0.357036  -0.032834  1
  H  H241  1  0.457491  0.875910  -0.154782  1
  H  H242  1  0.776157  0.549761  0.098790  1
  H  H243  1  0.895733  0.254208  0.026917  1
  H  H244  1  0.862669  0.452543  0.158033  1
  H  H245  1  0.956149  0.221396  0.105647  1
  H  H246  1  0.939386  0.323998  0.173994  1
  H  H247  1  0.361566  0.561436  0.650590  1
  H  H248  1  0.275931  0.458828  0.591485  1
  H  H249  1  0.448856  0.651823  0.708269  1
  H  H250  1  0.393741  0.743307  0.516232  1
  H  H251  1  0.309007  0.643902  0.459420  1
  H  H252  1  0.481137  0.839319  0.576037  1
  H  H253  1  0.526048  0.778218  0.723401  1
  H  H254  1  0.190692  0.357036  0.532834  1
  H  H255  1  0.542509  0.875910  0.654782  1
  H  H256  1  0.223843  0.549761  0.401210  1
  H  H257  1  0.104267  0.254208  0.473083  1
  H  H258  1  0.137331  0.452543  0.341967  1
  H  H259  1  0.043851  0.221396  0.394353  1
  H  H260  1  0.060614  0.323998  0.326006  1
  H  H261  1  0.138434  0.061436  -0.150590  1
  H  H262  1  0.224069  -0.041172  -0.091485  1
  H  H263  1  0.051144  0.151823  -0.208269  1
  H  H264  1  0.106259  0.243307  -0.016232  1
  H  H265  1  0.190993  0.143902  0.040580  1
  H  H266  1  0.018863  0.339319  -0.076037  1
  H  H267  1  -0.026048  0.278218  -0.223401  1
  H  H268  1  0.309308  -0.142964  -0.032834  1
  H  H269  1  -0.042509  0.375910  -0.154782  1
  H  H270  1  0.276157  0.049761  0.098790  1
  H  H271  1  0.395733  -0.245792  0.026917  1
  H  H272  1  0.362669  -0.047457  0.158033  1
  H  H273  1  0.456149  -0.278604  0.105647  1
  H  H274  1  0.439386  -0.176002  0.173994  1
  H  H275  1  -0.138434  0.061436  -0.349410  1
  H  H276  1  -0.224069  -0.041172  -0.408515  1
  H  H277  1  -0.051144  0.151823  -0.291731  1
  H  H278  1  -0.106259  0.243307  -0.483768  1
  H  H279  1  -0.190993  0.143902  -0.540580  1
  H  H280  1  -0.018863  0.339319  -0.423963  1
  H  H281  1  0.026048  0.278218  -0.276599  1
  H  H282  1  -0.309308  -0.142964  -0.467166  1
  H  H283  1  0.042509  0.375910  -0.345218  1
  H  H284  1  -0.276157  0.049761  -0.598790  1
  H  H285  1  -0.395733  -0.245792  -0.526917  1
  H  H286  1  -0.362669  -0.047457  -0.658033  1
  H  H287  1  -0.456149  -0.278604  -0.605647  1
  H  H288  1  -0.439386  -0.176002  -0.673994  1
