# generated using pymatgen
data_H5C9S
_symmetry_space_group_name_H-M   'P 1'
_cell_length_a   7.25040000
_cell_length_b   10.55610000
_cell_length_c   11.22900000
_cell_angle_alpha   94.58500000
_cell_angle_beta   90.29600000
_cell_angle_gamma   102.41900000
_symmetry_Int_Tables_number   1
_chemical_formula_structural   H5C9S
_chemical_formula_sum   'H10 C18 S2'
_cell_volume   836.40593721
_cell_formula_units_Z   2
loop_
 _symmetry_equiv_pos_site_id
 _symmetry_equiv_pos_as_xyz
  1  'x, y, z'
loop_
 _atom_site_type_symbol
 _atom_site_label
 _atom_site_symmetry_multiplicity
 _atom_site_fract_x
 _atom_site_fract_y
 _atom_site_fract_z
 _atom_site_occupancy
  C  C1  1  0.851100  0.292800  0.505400  1
  C  C2  1  0.904000  0.359400  0.400600  1
  C  C3  1  0.702900  0.316900  0.570800  1
  C  C4  1  1.065000  0.324000  0.343000  1
  C  C5  1  0.806900  0.447600  0.365300  1
  C  C6  1  1.133600  0.233500  0.402300  1
  C  C7  1  0.600200  0.407700  0.536500  1
  C  C8  1  0.653700  0.474300  0.431300  1
  C  C9  1  0.447900  0.434700  0.603000  1
  C  C10  1  0.552100  0.565300  0.397000  1
  C  C11  1  0.346300  0.525700  0.568700  1
  C  C12  1  0.399800  0.592300  0.463500  1
  C  C13  1  0.193100  0.552400  0.634700  1
  C  C14  1  0.297100  0.683100  0.429200  1
  C  C15  1  0.096000  0.640600  0.599400  1
  C  C16  1  0.148900  0.707200  0.494600  1
  C  C17  1  -0.065000  0.676000  0.657000  1
  C  C18  1  -0.133600  0.766500  0.597700  1
  H  H19  1  0.666473  0.263501  0.650618  1
  H  H20  1  1.129623  0.362536  0.261243  1
  H  H21  1  0.851787  0.496807  0.284248  1
  H  H22  1  1.259960  0.206657  0.363025  1
  H  H23  1  0.407360  0.383525  0.683601  1
  H  H24  1  0.592640  0.616475  0.316399  1
  H  H25  1  0.148213  0.503193  0.715752  1
  H  H26  1  0.333527  0.736499  0.349382  1
  H  H27  1  -0.129623  0.637464  0.738757  1
  H  H28  1  -0.259960  0.793343  0.636975  1
  S  S29  1  0.997900  0.186400  0.525100  1
  S  S30  1  0.002100  0.813600  0.474900  1
