# generated using pymatgen
data_H7(C5S)3
_symmetry_space_group_name_H-M   'P 1'
_cell_length_a   10.25140000
_cell_length_b   17.66010000
_cell_length_c   16.73530000
_cell_angle_alpha   90.00000000
_cell_angle_beta   91.68700000
_cell_angle_gamma   90.00000000
_symmetry_Int_Tables_number   1
_chemical_formula_structural   H7(C5S)3
_chemical_formula_sum   'H28 C60 S12'
_cell_volume   3028.45804154
_cell_formula_units_Z   4
loop_
 _symmetry_equiv_pos_site_id
 _symmetry_equiv_pos_as_xyz
  1  'x, y, z'
loop_
 _atom_site_type_symbol
 _atom_site_label
 _atom_site_symmetry_multiplicity
 _atom_site_fract_x
 _atom_site_fract_y
 _atom_site_fract_z
 _atom_site_occupancy
  C  C1  1  0.099200  0.458200  0.465200  1
  C  C2  1  0.119100  0.493200  0.540100  1
  C  C3  1  -0.008340  0.463030  0.423330  1
  C  C4  1  0.247500  0.478700  0.570600  1
  C  C5  1  0.008340  0.536970  0.576670  1
  C  C6  1  0.324300  0.438000  0.523200  1
  C  C7  1  -0.119100  0.506800  0.459900  1
  C  C8  1  -0.099200  0.541800  0.534800  1
  C  C9  1  0.458000  0.411000  0.540000  1
  C  C10  1  -0.247500  0.521300  0.429400  1
  C  C11  1  0.528500  0.368600  0.494500  1
  C  C12  1  -0.324300  0.562000  0.476800  1
  C  C13  1  0.657700  0.350500  0.525800  1
  C  C14  1  0.680600  0.388000  0.599200  1
  C  C15  1  -0.458000  0.589000  0.460000  1
  C  C16  1  0.756600  0.309900  0.486600  1
  C  C17  1  0.805200  0.386100  0.635200  1
  C  C18  1  -0.528500  0.631400  0.505500  1
  C  C19  1  0.878500  0.307200  0.526000  1
  C  C20  1  0.902100  0.344200  0.599600  1
  C  C21  1  -0.657700  0.649500  0.474200  1
  C  C22  1  -0.680600  0.612000  0.400800  1
  C  C23  1  1.036900  0.334300  0.628600  1
  C  C24  1  -0.756600  0.690100  0.513400  1
  C  C25  1  -0.805200  0.613900  0.364800  1
  C  C26  1  1.105900  0.292100  0.579600  1
  C  C27  1  -0.878500  0.692800  0.474000  1
  C  C28  1  -0.902100  0.655800  0.400400  1
  C  C29  1  -1.036900  0.665700  0.371400  1
  C  C30  1  -1.105900  0.707900  0.420400  1
  C  C31  1  -0.599200  -0.041800  0.034800  1
  C  C32  1  -0.619100  -0.006800  -0.040100  1
  C  C33  1  -0.491660  -0.036970  0.076670  1
  C  C34  1  -0.747500  -0.021300  -0.070600  1
  C  C35  1  -0.508340  0.036970  -0.076670  1
  C  C36  1  -0.824300  -0.062000  -0.023200  1
  C  C37  1  -0.380900  0.006800  0.040100  1
  C  C38  1  -0.400800  0.041800  -0.034800  1
  C  C39  1  -0.958000  -0.089000  -0.040000  1
  C  C40  1  -0.252500  0.021300  0.070600  1
  C  C41  1  -1.028500  -0.131400  0.005500  1
  C  C42  1  -0.175700  0.062000  0.023200  1
  C  C43  1  -1.157700  -0.149500  -0.025800  1
  C  C44  1  -1.180600  -0.112000  -0.099200  1
  C  C45  1  -0.042000  0.089000  0.040000  1
  C  C46  1  -1.256600  -0.190100  0.013400  1
  C  C47  1  -1.305200  -0.113900  -0.135200  1
  C  C48  1  0.028500  0.131400  -0.005500  1
  C  C49  1  -1.378500  -0.192800  -0.026000  1
  C  C50  1  -1.402100  -0.155800  -0.099600  1
  C  C51  1  0.157700  0.149500  0.025800  1
  C  C52  1  0.180600  0.112000  0.099200  1
  C  C53  1  -1.536900  -0.165700  -0.128600  1
  C  C54  1  0.256600  0.190100  -0.013400  1
  C  C55  1  0.305200  0.113900  0.135200  1
  C  C56  1  -1.605900  -0.207900  -0.079600  1
  C  C57  1  0.378500  0.192800  0.026000  1
  C  C58  1  0.402100  0.155800  0.099600  1
  C  C59  1  0.536900  0.165700  0.128600  1
  C  C60  1  0.605900  0.207900  0.079600  1
  H  H61  1  -0.005952  0.434150  0.365154  1
  H  H62  1  0.286184  0.498342  0.629001  1
  H  H63  1  0.005952  0.565850  0.634846  1
  H  H64  1  -0.286184  0.501658  0.370999  1
  H  H65  1  0.484491  0.350382  0.436921  1
  H  H66  1  0.739603  0.281892  0.428514  1
  H  H67  1  0.826770  0.417249  0.690956  1
  H  H68  1  -0.484491  0.649618  0.563079  1
  H  H69  1  1.083308  0.357081  0.683613  1
  H  H70  1  -0.739603  0.718108  0.571486  1
  H  H71  1  -0.826770  0.582751  0.309044  1
  H  H72  1  1.207715  0.284762  0.600776  1
  H  H73  1  -1.083308  0.642919  0.316387  1
  H  H74  1  -1.207715  0.715238  0.399224  1
  H  H75  1  -0.494048  -0.065850  0.134846  1
  H  H76  1  -0.786184  -0.001658  -0.129001  1
  H  H77  1  -0.505952  0.065850  -0.134846  1
  H  H78  1  -0.213816  0.001658  0.129001  1
  H  H79  1  -0.984491  -0.149618  0.063079  1
  H  H80  1  -1.239603  -0.218108  0.071486  1
  H  H81  1  -1.326770  -0.082751  -0.190956  1
  H  H82  1  -0.015509  0.149618  -0.063079  1
  H  H83  1  -1.583308  -0.142919  -0.183613  1
  H  H84  1  0.239603  0.218108  -0.071486  1
  H  H85  1  0.326770  0.082751  0.190956  1
  H  H86  1  -1.707715  -0.215238  -0.100776  1
  H  H87  1  0.583308  0.142919  0.183613  1
  H  H88  1  0.707715  0.215238  0.100776  1
  S  S89  1  0.238390  0.412970  0.436160  1
  S  S90  1  -0.238390  0.587030  0.563840  1
  S  S91  1  0.547070  0.441010  0.626650  1
  S  S92  1  -0.547070  0.558990  0.373350  1
  S  S93  1  1.017290  0.261260  0.497820  1
  S  S94  1  -1.017290  0.738740  0.502180  1
  S  S95  1  -0.738390  -0.087030  0.063840  1
  S  S96  1  -0.261610  0.087030  -0.063840  1
  S  S97  1  -1.047070  -0.058990  -0.126650  1
  S  S98  1  0.047070  0.058990  0.126650  1
  S  S99  1  -1.517290  -0.238740  0.002180  1
  S  S100  1  0.517290  0.238740  -0.002180  1
