# generated using pymatgen
data_H5C9S
_symmetry_space_group_name_H-M   'P 1'
_cell_length_a   15.85570000
_cell_length_b   17.50770000
_cell_length_c   17.54210000
_cell_angle_alpha   84.94100000
_cell_angle_beta   72.85100000
_cell_angle_gamma   71.32600000
_symmetry_Int_Tables_number   1
_chemical_formula_structural   H5C9S
_chemical_formula_sum   'H40 C72 S8'
_cell_volume   4408.06813697
_cell_formula_units_Z   8
loop_
 _symmetry_equiv_pos_site_id
 _symmetry_equiv_pos_as_xyz
  1  'x, y, z'
loop_
 _atom_site_type_symbol
 _atom_site_label
 _atom_site_symmetry_multiplicity
 _atom_site_fract_x
 _atom_site_fract_y
 _atom_site_fract_z
 _atom_site_occupancy
  C  C1  1  0.423100  0.127000  0.006400  1
  C  C2  1  0.438600  0.071600  0.071100  1
  C  C3  1  0.343100  0.143100  -0.014500  1
  C  C4  1  0.528500  0.067700  0.080100  1
  C  C5  1  0.375700  0.032800  0.107500  1
  C  C6  1  0.567600  0.114400  0.030900  1
  C  C7  1  0.275700  0.105200  0.023300  1
  C  C8  1  0.292600  0.047000  0.084500  1
  C  C9  1  0.191500  0.121400  0.003200  1
  C  C10  1  0.228400  0.005100  0.121000  1
  C  C11  1  0.123800  0.084800  0.044000  1
  C  C12  1  0.142200  0.025700  0.103100  1
  C  C13  1  0.035000  0.108800  0.028500  1
  C  C14  1  0.075000  -0.012900  0.140600  1
  C  C15  1  -0.030400  0.071700  0.069000  1
  C  C16  1  -0.009400  0.010100  0.125400  1
  C  C17  1  -0.124900  0.084600  0.069100  1
  C  C18  1  -0.164100  0.036000  0.116000  1
  C  C19  1  0.576900  -0.127000  -0.006400  1
  C  C20  1  0.561400  -0.071600  -0.071100  1
  C  C21  1  0.656900  -0.143100  0.014500  1
  C  C22  1  0.471500  -0.067700  -0.080100  1
  C  C23  1  0.624300  -0.032800  -0.107500  1
  C  C24  1  0.432400  -0.114400  -0.030900  1
  C  C25  1  0.724300  -0.105200  -0.023300  1
  C  C26  1  0.707400  -0.047000  -0.084500  1
  C  C27  1  0.808500  -0.121400  -0.003200  1
  C  C28  1  0.771600  -0.005100  -0.121000  1
  C  C29  1  0.876200  -0.084800  -0.044000  1
  C  C30  1  0.857800  -0.025700  -0.103100  1
  C  C31  1  0.965000  -0.108800  -0.028500  1
  C  C32  1  0.925000  0.012900  -0.140600  1
  C  C33  1  1.030400  -0.071700  -0.069000  1
  C  C34  1  1.009400  -0.010100  -0.125400  1
  C  C35  1  1.124900  -0.084600  -0.069100  1
  C  C36  1  1.164100  -0.036000  -0.116000  1
  C  C37  1  -0.072500  0.490200  0.626600  1
  C  C38  1  -0.014400  0.426900  0.568600  1
  C  C39  1  -0.165900  0.511000  0.643000  1
  C  C40  1  0.081800  0.417200  0.563900  1
  C  C41  1  -0.053000  0.390300  0.529200  1
  C  C42  1  0.090100  0.465000  0.611600  1
  C  C43  1  -0.209300  0.472600  0.604600  1
  C  C44  1  -0.151400  0.411800  0.545800  1
  C  C45  1  -0.307100  0.493900  0.622700  1
  C  C46  1  -0.193700  0.375000  0.505400  1
  C  C47  1  -0.348500  0.452400  0.585800  1
  C  C48  1  -0.290300  0.392900  0.526300  1
  C  C49  1  -0.445900  0.468400  0.608600  1
  C  C50  1  -0.333333  0.354200  0.487400  1
  C  C51  1  -0.484000  0.423000  0.573000  1
  C  C52  1  -0.420800  0.371000  0.506000  1
  C  C53  1  -0.578000  0.431100  0.583400  1
  C  C54  1  -0.587800  0.387100  0.530000  1
  C  C55  1  0.072500  -0.490200  0.373400  1
  C  C56  1  0.014400  -0.426900  0.431400  1
  C  C57  1  0.165900  -0.511000  0.357000  1
  C  C58  1  -0.081800  -0.417200  0.436100  1
  C  C59  1  0.053000  -0.390300  0.470800  1
  C  C60  1  -0.090100  -0.465000  0.388400  1
  C  C61  1  0.209300  -0.472600  0.395400  1
  C  C62  1  0.151400  -0.411800  0.454200  1
  C  C63  1  0.307100  -0.493900  0.377300  1
  C  C64  1  0.193700  -0.375000  0.494600  1
  C  C65  1  0.348500  -0.452400  0.414200  1
  C  C66  1  0.290300  -0.392900  0.473700  1
  C  C67  1  0.445900  -0.468400  0.391400  1
  C  C68  1  0.333333  -0.354200  0.512600  1
  C  C69  1  0.484000  -0.423000  0.427000  1
  C  C70  1  0.420800  -0.371000  0.494000  1
  C  C71  1  0.578000  -0.431100  0.416600  1
  C  C72  1  0.587800  -0.387100  0.470000  1
  H  H73  1  0.332834  0.187097  -0.062327  1
  H  H74  1  0.564995  0.031348  0.121912  1
  H  H75  1  0.391883  -0.009659  0.155087  1
  H  H76  1  0.632956  0.109117  0.043971  1
  H  H77  1  0.178333  0.163535  -0.045399  1
  H  H78  1  0.245523  -0.043545  0.163341  1
  H  H79  1  0.016900  0.156060  -0.014815  1
  H  H80  1  0.088811  -0.062364  0.182917  1
  H  H81  1  -0.165308  0.129539  0.034903  1
  H  H82  1  -0.234901  0.049695  0.110815  1
  H  H83  1  0.667166  -0.187097  0.062327  1
  H  H84  1  0.435005  -0.031348  -0.121912  1
  H  H85  1  0.608117  0.009659  -0.155087  1
  H  H86  1  0.367044  -0.109117  -0.043971  1
  H  H87  1  0.821667  -0.163535  0.045399  1
  H  H88  1  0.754477  0.043545  -0.163341  1
  H  H89  1  0.983100  -0.156060  0.014815  1
  H  H90  1  0.911189  0.062364  -0.182917  1
  H  H91  1  1.165308  -0.129539  -0.034903  1
  H  H92  1  1.234901  -0.049695  -0.110815  1
  H  H93  1  -0.206591  0.559178  0.687597  1
  H  H94  1  0.145417  0.375585  0.525976  1
  H  H95  1  -0.005379  0.344033  0.484605  1
  H  H96  1  0.164722  0.450912  0.604792  1
  H  H97  1  -0.351100  0.542893  0.665608  1
  H  H98  1  -0.150620  0.331603  0.456767  1
  H  H99  1  -0.491259  0.515365  0.653271  1
  H  H100  1  -0.296630  0.308355  0.439903  1
  H  H101  1  -0.637961  0.468201  0.628833  1
  H  H102  1  -0.661718  0.395999  0.537638  1
  H  H103  1  0.206591  -0.559178  0.312403  1
  H  H104  1  -0.145417  -0.375585  0.474024  1
  H  H105  1  0.005379  -0.344033  0.515395  1
  H  H106  1  -0.164722  -0.450912  0.395208  1
  H  H107  1  0.351100  -0.542893  0.334392  1
  H  H108  1  0.150620  -0.331603  0.543233  1
  H  H109  1  0.491259  -0.515365  0.346729  1
  H  H110  1  0.296630  -0.308355  0.560097  1
  H  H111  1  0.637961  -0.468201  0.371167  1
  H  H112  1  0.661718  -0.395999  0.462362  1
  S  S113  1  0.510200  0.168900  -0.037600  1
  S  S114  1  -0.096800  -0.033200  0.170700  1
  S  S115  1  0.489800  -0.168900  0.037600  1
  S  S116  1  1.096800  0.033200  -0.170700  1
  S  S117  1  -0.012300  0.533700  0.669400  1
  S  S118  1  -0.486300  0.329700  0.465100  1
  S  S119  1  0.012300  -0.533700  0.330600  1
  S  S120  1  0.486300  -0.329700  0.534900  1
