# generated using pymatgen
data_H5C9S
_symmetry_space_group_name_H-M   'P 1'
_cell_length_a   8.23570000
_cell_length_b   10.33530000
_cell_length_c   12.07650000
_cell_angle_alpha   103.29300000
_cell_angle_beta   103.58310000
_cell_angle_gamma   106.00120000
_symmetry_Int_Tables_number   1
_chemical_formula_structural   H5C9S
_chemical_formula_sum   'H10 C18 S2'
_cell_volume   911.45607264
_cell_formula_units_Z   2
loop_
 _symmetry_equiv_pos_site_id
 _symmetry_equiv_pos_as_xyz
  1  'x, y, z'
loop_
 _atom_site_type_symbol
 _atom_site_label
 _atom_site_symmetry_multiplicity
 _atom_site_fract_x
 _atom_site_fract_y
 _atom_site_fract_z
 _atom_site_occupancy
  C  C1  1  0.570430  0.015250  0.409630  1
  C  C2  1  0.622900  -0.068060  0.479020  1
  C  C3  1  0.449960  0.084500  0.428440  1
  C  C4  1  0.750170  -0.125520  0.439880  1
  C  C5  1  0.550040  -0.084500  0.571560  1
  C  C6  1  0.786510  -0.084110  0.342360  1
  C  C7  1  0.377100  0.068060  0.520980  1
  C  C8  1  0.838210  -0.209540  0.485570  1
  C  C9  1  0.429570  -0.015250  0.590370  1
  C  C10  1  0.906640  -0.125630  0.290810  1
  C  C11  1  0.249830  0.125520  0.560120  1
  C  C12  1  0.957880  -0.250180  0.434850  1
  C  C13  1  0.992340  -0.208120  0.338160  1
  C  C14  1  0.213490  0.084110  0.657640  1
  C  C15  1  0.161790  0.209540  0.514430  1
  C  C16  1  0.093360  0.125630  0.709190  1
  C  C17  1  0.042120  0.250180  0.565150  1
  C  C18  1  0.007660  0.208120  0.661840  1
  H  H19  1  0.414000  0.149222  0.372751  1
  H  H20  1  0.586000  -0.149222  0.627249  1
  H  H21  1  0.813247  -0.243777  0.561660  1
  H  H22  1  0.933343  -0.093855  0.214107  1
  H  H23  1  1.025931  -0.316226  0.471563  1
  H  H24  1  1.088246  -0.240389  0.298779  1
  H  H25  1  0.186753  0.243777  0.438340  1
  H  H26  1  0.066657  0.093855  0.785893  1
  H  H27  1  -0.025931  0.316226  0.528437  1
  H  H28  1  -0.088246  0.240389  0.701221  1
  S  S29  1  0.670470  0.023570  0.298330  1
  S  S30  1  0.329530  -0.023570  0.701670  1
