# generated using pymatgen
data_H7C11
_symmetry_space_group_name_H-M   'P 1'
_cell_length_a   11.55020000
_cell_length_b   11.67100000
_cell_length_c   13.66570000
_cell_angle_alpha   66.25200000
_cell_angle_beta   83.71900000
_cell_angle_gamma   79.41400000
_symmetry_Int_Tables_number   1
_chemical_formula_structural   H7C11
_chemical_formula_sum   'H28 C44'
_cell_volume   1656.20093530
_cell_formula_units_Z   4
loop_
 _symmetry_equiv_pos_site_id
 _symmetry_equiv_pos_as_xyz
  1  'x, y, z'
loop_
 _atom_site_type_symbol
 _atom_site_label
 _atom_site_symmetry_multiplicity
 _atom_site_fract_x
 _atom_site_fract_y
 _atom_site_fract_z
 _atom_site_occupancy
  C  C1  1  0.396120  0.423370  0.277400  1
  C  C2  1  0.464740  0.396600  0.365830  1
  C  C3  1  0.422650  0.514690  0.175600  1
  C  C4  1  0.564530  0.460650  0.351210  1
  C  C5  1  0.438330  0.308390  0.468320  1
  C  C6  1  0.522360  0.578860  0.161320  1
  C  C7  1  0.355400  0.543490  0.086980  1
  C  C8  1  0.592270  0.550190  0.249160  1
  C  C9  1  0.632250  0.433390  0.439050  1
  C  C10  1  0.504900  0.283670  0.554220  1
  C  C11  1  0.548760  0.668600  0.059740  1
  C  C12  1  0.382630  0.631410  -0.012610  1
  C  C13  1  0.605460  0.346950  0.539230  1
  C  C14  1  0.478260  0.197580  0.659220  1
  C  C15  1  0.482200  0.695590  -0.026490  1
  C  C16  1  0.317540  0.660940  -0.104240  1
  C  C17  1  0.673110  0.317840  0.629120  1
  C  C18  1  0.544220  0.174440  0.742610  1
  C  C19  1  0.509300  0.783650  -0.130340  1
  C  C20  1  0.347010  0.745140  -0.201110  1
  C  C21  1  0.644500  0.235090  0.727010  1
  C  C22  1  0.445440  0.807730  -0.214770  1
  C  C23  1  0.603880  0.576630  0.722600  1
  C  C24  1  0.535260  0.603400  0.634170  1
  C  C25  1  0.577350  0.485310  0.824400  1
  C  C26  1  0.435470  0.539350  0.648790  1
  C  C27  1  0.561670  0.691610  0.531680  1
  C  C28  1  0.477640  0.421140  0.838680  1
  C  C29  1  0.644600  0.456510  0.913020  1
  C  C30  1  0.407730  0.449810  0.750840  1
  C  C31  1  0.367750  0.566610  0.560950  1
  C  C32  1  0.495100  0.716330  0.445780  1
  C  C33  1  0.451240  0.331400  0.940260  1
  C  C34  1  0.617370  0.368590  1.012610  1
  C  C35  1  0.394540  0.653050  0.460770  1
  C  C36  1  0.521740  0.802420  0.340780  1
  C  C37  1  0.517800  0.304410  1.026490  1
  C  C38  1  0.682460  0.339060  1.104240  1
  C  C39  1  0.326890  0.682160  0.370880  1
  C  C40  1  0.455780  0.825560  0.257390  1
  C  C41  1  0.490700  0.216350  1.130340  1
  C  C42  1  0.652990  0.254860  1.201110  1
  C  C43  1  0.355500  0.764910  0.272990  1
  C  C44  1  0.554560  0.192270  1.214770  1
  H  H45  1  0.321324  0.372628  0.287910  1
  H  H46  1  0.363288  0.257149  0.481709  1
  H  H47  1  0.278928  0.495638  0.095859  1
  H  H48  1  0.669194  0.598141  0.237966  1
  H  H49  1  0.708890  0.481380  0.429043  1
  H  H50  1  0.623959  0.719361  0.047323  1
  H  H51  1  0.402668  0.146192  0.676861  1
  H  H52  1  0.240167  0.616206  -0.099952  1
  H  H53  1  0.751727  0.361649  0.622586  1
  H  H54  1  0.516854  0.107627  0.821543  1
  H  H55  1  0.583890  0.836115  -0.146265  1
  H  H56  1  0.291752  0.762456  -0.267787  1
  H  H57  1  0.701574  0.217491  0.792541  1
  H  H58  1  0.472893  0.876558  -0.292667  1
  H  H59  1  0.678676  0.627372  0.712090  1
  H  H60  1  0.636712  0.742851  0.518291  1
  H  H61  1  0.721072  0.504362  0.904141  1
  H  H62  1  0.330806  0.401859  0.762034  1
  H  H63  1  0.291110  0.518620  0.570957  1
  H  H64  1  0.376041  0.280639  0.952677  1
  H  H65  1  0.597332  0.853808  0.323139  1
  H  H66  1  0.759833  0.383794  1.099952  1
  H  H67  1  0.248273  0.638351  0.377414  1
  H  H68  1  0.483146  0.892373  0.178457  1
  H  H69  1  0.416110  0.163885  1.146265  1
  H  H70  1  0.708248  0.237544  1.267787  1
  H  H71  1  0.298426  0.782509  0.207459  1
  H  H72  1  0.527107  0.123442  1.292667  1
