# generated using pymatgen
data_H5C9S
_symmetry_space_group_name_H-M   'P 1'
_cell_length_a   7.28160000
_cell_length_b   11.33080000
_cell_length_c   11.85780000
_cell_angle_alpha   105.39200000
_cell_angle_beta   93.45500000
_cell_angle_gamma   108.26500000
_symmetry_Int_Tables_number   1
_chemical_formula_structural   H5C9S
_chemical_formula_sum   'H10 C18 S2'
_cell_volume   884.66622705
_cell_formula_units_Z   2
loop_
 _symmetry_equiv_pos_site_id
 _symmetry_equiv_pos_as_xyz
  1  'x, y, z'
loop_
 _atom_site_type_symbol
 _atom_site_label
 _atom_site_symmetry_multiplicity
 _atom_site_fract_x
 _atom_site_fract_y
 _atom_site_fract_z
 _atom_site_occupancy
  C  C1  1  0.018300  0.401400  0.311000  1
  C  C2  1  -0.037600  0.341700  0.402600  1
  C  C3  1  0.209300  0.472000  0.313100  1
  C  C4  1  -0.242000  0.279000  0.385200  1
  C  C5  1  0.102000  0.353600  0.491800  1
  C  C6  1  -0.331200  0.284100  0.282500  1
  C  C7  1  0.355400  0.486600  0.405800  1
  C  C8  1  0.301300  0.425300  0.496900  1
  C  C9  1  0.553800  0.561200  0.411600  1
  C  C10  1  0.446200  0.438800  0.588400  1
  C  C11  1  0.698700  0.574700  0.503100  1
  C  C12  1  0.644600  0.513400  0.594200  1
  C  C13  1  0.898000  0.646400  0.508200  1
  C  C14  1  0.790700  0.528000  0.686900  1
  C  C15  1  1.037600  0.658300  0.597400  1
  C  C16  1  0.981700  0.598600  0.689000  1
  C  C17  1  1.242000  0.721000  0.614800  1
  C  C18  1  1.331200  0.715900  0.717500  1
  H  H19  1  0.244780  0.516251  0.241508  1
  H  H20  1  -0.323329  0.231134  0.445420  1
  H  H21  1  0.053963  0.305483  0.559470  1
  H  H22  1  -0.489732  0.230718  0.267054  1
  H  H23  1  0.596317  0.609757  0.343493  1
  H  H24  1  0.403683  0.390243  0.656507  1
  H  H25  1  0.946037  0.694517  0.440530  1
  H  H26  1  0.755220  0.483749  0.758492  1
  H  H27  1  1.323329  0.768866  0.554580  1
  H  H28  1  1.489732  0.769282  0.732946  1
  S  S29  1  -0.175100  0.371800  0.203700  1
  S  S30  1  1.175100  0.628200  0.796300  1
