# generated using pymatgen
data_H7C11
_symmetry_space_group_name_H-M   'P 1'
_cell_length_a   6.92510000
_cell_length_b   10.82460000
_cell_length_c   11.76440000
_cell_angle_alpha   93.63950000
_cell_angle_beta   95.00420000
_cell_angle_gamma   104.48250000
_symmetry_Int_Tables_number   1
_chemical_formula_structural   H7C11
_chemical_formula_sum   'H14 C22'
_cell_volume   847.26699864
_cell_formula_units_Z   2
loop_
 _symmetry_equiv_pos_site_id
 _symmetry_equiv_pos_as_xyz
  1  'x, y, z'
loop_
 _atom_site_type_symbol
 _atom_site_label
 _atom_site_symmetry_multiplicity
 _atom_site_fract_x
 _atom_site_fract_y
 _atom_site_fract_z
 _atom_site_occupancy
  C  C1  1  0.543400  0.566650  0.400600  1
  C  C2  1  0.395000  0.592220  0.468070  1
  C  C3  1  0.648300  0.475180  0.431020  1
  C  C4  1  0.351700  0.524820  0.568980  1
  C  C5  1  0.287800  0.681860  0.438100  1
  C  C6  1  0.605000  0.407780  0.531930  1
  C  C7  1  0.796700  0.448400  0.365790  1
  C  C8  1  0.456600  0.433350  0.599400  1
  C  C9  1  0.203300  0.551600  0.634210  1
  C  C10  1  0.141600  0.706580  0.503040  1
  C  C11  1  0.712200  0.318140  0.561900  1
  C  C12  1  0.900500  0.359840  0.395880  1
  C  C13  1  0.099500  0.640160  0.604120  1
  C  C14  1  0.028200  0.794800  0.472580  1
  C  C15  1  0.858400  0.293420  0.496960  1
  C  C16  1  1.051500  0.331400  0.331290  1
  C  C17  1  -0.051500  0.668600  0.668710  1
  C  C18  1  -0.114500  0.816700  0.535650  1
  C  C19  1  0.971800  0.205200  0.527420  1
  C  C20  1  1.154100  0.247000  0.363510  1
  C  C21  1  -0.154100  0.753000  0.636490  1
  C  C22  1  1.114500  0.183300  0.464350  1
  H  H23  1  0.577378  0.618125  0.324137  1
  H  H24  1  0.319165  0.734071  0.361770  1
  H  H25  1  0.832746  0.498331  0.288752  1
  H  H26  1  0.422622  0.381875  0.675863  1
  H  H27  1  0.167254  0.501669  0.711248  1
  H  H28  1  0.680835  0.265929  0.638230  1
  H  H29  1  0.052002  0.848674  0.396602  1
  H  H30  1  1.090867  0.376916  0.252549  1
  H  H31  1  -0.090867  0.623084  0.747451  1
  H  H32  1  -0.196916  0.885127  0.505458  1
  H  H33  1  0.947998  0.151326  0.603398  1
  H  H34  1  1.267647  0.230471  0.308717  1
  H  H35  1  -0.267647  0.769529  0.691283  1
  H  H36  1  1.196916  0.114873  0.494542  1
