# generated using pymatgen
data_H5C9S
_symmetry_space_group_name_H-M   'P 1'
_cell_length_a   11.65660000
_cell_length_b   35.65630000
_cell_length_c   14.76980000
_cell_angle_alpha   90.00000000
_cell_angle_beta   103.72000000
_cell_angle_gamma   90.00000000
_symmetry_Int_Tables_number   1
_chemical_formula_structural   H5C9S
_chemical_formula_sum   'H40 C72 S8'
_cell_volume   5963.62824005
_cell_formula_units_Z   8
loop_
 _symmetry_equiv_pos_site_id
 _symmetry_equiv_pos_as_xyz
  1  'x, y, z'
loop_
 _atom_site_type_symbol
 _atom_site_label
 _atom_site_symmetry_multiplicity
 _atom_site_fract_x
 _atom_site_fract_y
 _atom_site_fract_z
 _atom_site_occupancy
  C  C1  1  0.904800  0.257860  0.793600  1
  C  C2  1  0.906700  0.217830  0.797800  1
  C  C3  1  1.012500  0.273900  0.847700  1
  C  C4  1  0.806200  0.276080  0.743000  1
  C  C5  1  0.812300  0.196850  0.752100  1
  C  C6  1  1.093000  0.247860  0.889000  1
  C  C7  1  0.708400  0.255210  0.693500  1
  C  C8  1  0.710200  0.214970  0.697800  1
  C  C9  1  0.607100  0.273610  0.640600  1
  C  C10  1  0.612100  0.194330  0.647000  1
  C  C11  1  0.508800  0.253100  0.591300  1
  C  C12  1  0.510900  0.212830  0.593200  1
  C  C13  1  0.406900  0.271690  0.539500  1
  C  C14  1  0.411400  0.192500  0.542600  1
  C  C15  1  0.312000  0.251790  0.491000  1
  C  C16  1  0.314500  0.211680  0.493400  1
  C  C17  1  0.204200  0.265910  0.435500  1
  C  C18  1  0.125300  0.238590  0.397600  1
  C  C19  1  0.595200  -0.242140  0.706400  1
  C  C20  1  0.593300  -0.282170  0.702200  1
  C  C21  1  0.487500  -0.226100  0.652300  1
  C  C22  1  0.693800  -0.223920  0.757000  1
  C  C23  1  0.687700  -0.303150  0.747900  1
  C  C24  1  0.407000  -0.252140  0.611000  1
  C  C25  1  0.791600  -0.244790  0.806500  1
  C  C26  1  0.789800  -0.285030  0.802200  1
  C  C27  1  0.892900  -0.226390  0.859400  1
  C  C28  1  0.887900  -0.305670  0.853000  1
  C  C29  1  0.991200  -0.246900  0.908700  1
  C  C30  1  0.989100  -0.287170  0.906800  1
  C  C31  1  1.093100  -0.228310  0.960500  1
  C  C32  1  1.088600  -0.307500  0.957400  1
  C  C33  1  1.188000  -0.248210  1.009000  1
  C  C34  1  1.185500  -0.288320  1.006600  1
  C  C35  1  1.295800  -0.234090  1.064500  1
  C  C36  1  1.374700  -0.261410  1.102400  1
  C  C37  1  0.095200  -0.257860  0.206400  1
  C  C38  1  0.093300  -0.217830  0.202200  1
  C  C39  1  -0.012500  -0.273900  0.152300  1
  C  C40  1  0.193800  -0.276080  0.257000  1
  C  C41  1  0.187700  -0.196850  0.247900  1
  C  C42  1  -0.093000  -0.247860  0.111000  1
  C  C43  1  0.291600  -0.255210  0.306500  1
  C  C44  1  0.289800  -0.214970  0.302200  1
  C  C45  1  0.392900  -0.273610  0.359400  1
  C  C46  1  0.387900  -0.194330  0.353000  1
  C  C47  1  0.491200  -0.253100  0.408700  1
  C  C48  1  0.489100  -0.212830  0.406800  1
  C  C49  1  0.593100  -0.271690  0.460500  1
  C  C50  1  0.588600  -0.192500  0.457400  1
  C  C51  1  0.688000  -0.251790  0.509000  1
  C  C52  1  0.685500  -0.211680  0.506600  1
  C  C53  1  0.795800  -0.265910  0.564500  1
  C  C54  1  0.874700  -0.238590  0.602400  1
  C  C55  1  0.404800  0.242140  0.293600  1
  C  C56  1  0.406700  0.282170  0.297800  1
  C  C57  1  0.512500  0.226100  0.347700  1
  C  C58  1  0.306200  0.223920  0.243000  1
  C  C59  1  0.312300  0.303150  0.252100  1
  C  C60  1  0.593000  0.252140  0.389000  1
  C  C61  1  0.208400  0.244790  0.193500  1
  C  C62  1  0.210200  0.285030  0.197800  1
  C  C63  1  0.107100  0.226390  0.140600  1
  C  C64  1  0.112100  0.305670  0.147000  1
  C  C65  1  0.008800  0.246900  0.091300  1
  C  C66  1  0.010900  0.287170  0.093200  1
  C  C67  1  -0.093100  0.228310  0.039500  1
  C  C68  1  -0.088600  0.307500  0.042600  1
  C  C69  1  -0.188000  0.248210  -0.009000  1
  C  C70  1  -0.185500  0.288320  -0.006600  1
  C  C71  1  -0.295800  0.234090  -0.064500  1
  C  C72  1  -0.374700  0.261410  -0.102400  1
  H  H73  1  1.031980  0.304037  0.856867  1
  H  H74  1  0.805569  0.306928  0.742132  1
  H  H75  1  0.818346  0.166148  0.758853  1
  H  H76  1  1.175570  0.260375  0.929481  1
  H  H77  1  0.604723  0.304435  0.637748  1
  H  H78  1  0.614542  0.163500  0.649363  1
  H  H79  1  0.401300  0.302482  0.536860  1
  H  H80  1  0.409370  0.161658  0.541507  1
  H  H81  1  0.183341  0.295819  0.422797  1
  H  H82  1  0.041441  0.249742  0.355670  1
  H  H83  1  0.468020  -0.195963  0.643133  1
  H  H84  1  0.694431  -0.193072  0.757868  1
  H  H85  1  0.681654  -0.333852  0.741147  1
  H  H86  1  0.324430  -0.239625  0.570519  1
  H  H87  1  0.895277  -0.195565  0.862252  1
  H  H88  1  0.885458  -0.336500  0.850637  1
  H  H89  1  1.098700  -0.197518  0.963140  1
  H  H90  1  1.090630  -0.338342  0.958493  1
  H  H91  1  1.316659  -0.204181  1.077203  1
  H  H92  1  1.458559  -0.250258  1.144330  1
  H  H93  1  -0.031980  -0.304037  0.143133  1
  H  H94  1  0.194431  -0.306928  0.257868  1
  H  H95  1  0.181654  -0.166148  0.241147  1
  H  H96  1  -0.175570  -0.260375  0.070519  1
  H  H97  1  0.395277  -0.304435  0.362252  1
  H  H98  1  0.385458  -0.163500  0.350637  1
  H  H99  1  0.598700  -0.302482  0.463140  1
  H  H100  1  0.590630  -0.161658  0.458493  1
  H  H101  1  0.816659  -0.295819  0.577203  1
  H  H102  1  0.958559  -0.249742  0.644330  1
  H  H103  1  0.531980  0.195963  0.356867  1
  H  H104  1  0.305569  0.193072  0.242132  1
  H  H105  1  0.318346  0.333852  0.258853  1
  H  H106  1  0.675570  0.239625  0.429481  1
  H  H107  1  0.104723  0.195565  0.137748  1
  H  H108  1  0.114542  0.336500  0.149363  1
  H  H109  1  -0.098700  0.197518  0.036860  1
  H  H110  1  -0.090630  0.338342  0.041507  1
  H  H111  1  -0.316659  0.204181  -0.077203  1
  H  H112  1  -0.458559  0.250258  -0.144330  1
  S  S113  1  1.040490  0.201660  0.865090  1
  S  S114  1  0.182060  0.193230  0.427530  1
  S  S115  1  0.459510  -0.298340  0.634910  1
  S  S116  1  1.317940  -0.306770  1.072470  1
  S  S117  1  -0.040490  -0.201660  0.134910  1
  S  S118  1  0.817940  -0.193230  0.572470  1
  S  S119  1  0.540490  0.298340  0.365090  1
  S  S120  1  -0.317940  0.306770  -0.072470  1
