# generated using pymatgen
data_H5C9S
_symmetry_space_group_name_H-M   'P 1'
_cell_length_a   15.50570000
_cell_length_b   8.31050000
_cell_length_c   17.70970000
_cell_angle_alpha   90.00000000
_cell_angle_beta   101.11700000
_cell_angle_gamma   90.00000000
_symmetry_Int_Tables_number   1
_chemical_formula_structural   H5C9S
_chemical_formula_sum   'H20 C36 S4'
_cell_volume   2239.25208203
_cell_formula_units_Z   4
loop_
 _symmetry_equiv_pos_site_id
 _symmetry_equiv_pos_as_xyz
  1  'x, y, z'
loop_
 _atom_site_type_symbol
 _atom_site_label
 _atom_site_symmetry_multiplicity
 _atom_site_fract_x
 _atom_site_fract_y
 _atom_site_fract_z
 _atom_site_occupancy
  C  C1  1  0.601900  0.406000  0.510760  1
  C  C2  1  0.596600  0.369300  0.431190  1
  C  C3  1  0.571830  0.300400  0.558830  1
  C  C4  1  0.628000  0.496500  0.391100  1
  C  C5  1  0.562040  0.225700  0.401490  1
  C  C6  1  0.656000  0.620600  0.440100  1
  C  C7  1  0.535270  0.150500  0.529850  1
  C  C8  1  0.531770  0.111700  0.450210  1
  C  C9  1  0.503290  0.038700  0.578230  1
  C  C10  1  0.496710  -0.038700  0.421770  1
  C  C11  1  0.468230  -0.111700  0.549790  1
  C  C12  1  0.464730  -0.150500  0.470150  1
  C  C13  1  0.437960  -0.225700  0.598510  1
  C  C14  1  0.428170  -0.300400  0.441170  1
  C  C15  1  0.403400  -0.369300  0.568810  1
  C  C16  1  0.398100  -0.406000  0.489240  1
  C  C17  1  0.372000  -0.496500  0.608900  1
  C  C18  1  0.344000  -0.620600  0.559900  1
  C  C19  1  0.898100  -0.094000  0.989240  1
  C  C20  1  0.903400  -0.130700  1.068810  1
  C  C21  1  0.928170  -0.199600  0.941170  1
  C  C22  1  0.872000  -0.003500  1.108900  1
  C  C23  1  0.937960  -0.274300  1.098510  1
  C  C24  1  0.844000  0.120600  1.059900  1
  C  C25  1  0.964730  -0.349500  0.970150  1
  C  C26  1  0.968230  -0.388300  1.049790  1
  C  C27  1  0.996710  -0.461300  0.921770  1
  C  C28  1  1.003290  -0.538700  1.078230  1
  C  C29  1  1.031770  -0.611700  0.950210  1
  C  C30  1  1.035270  -0.650500  1.029850  1
  C  C31  1  1.062040  -0.725700  0.901490  1
  C  C32  1  1.071830  -0.800400  1.058830  1
  C  C33  1  1.096600  -0.869300  0.931190  1
  C  C34  1  1.101900  -0.906000  1.010760  1
  C  C35  1  1.128000  -0.996500  0.891100  1
  C  C36  1  1.156000  -1.120600  0.940100  1
  H  H37  1  0.576936  0.335255  0.619452  1
  H  H38  1  0.630354  0.498646  0.329426  1
  H  H39  1  0.558668  0.202431  0.339844  1
  H  H40  1  0.680016  0.720984  0.409322  1
  H  H41  1  0.505728  0.069256  0.639040  1
  H  H42  1  0.494272  -0.069256  0.360960  1
  H  H43  1  0.441332  -0.202431  0.660156  1
  H  H44  1  0.423064  -0.335255  0.380548  1
  H  H45  1  0.369646  -0.498646  0.670574  1
  H  H46  1  0.319984  -0.720984  0.590678  1
  H  H47  1  0.923064  -0.164745  0.880548  1
  H  H48  1  0.869646  -0.001354  1.170574  1
  H  H49  1  0.941332  -0.297569  1.160156  1
  H  H50  1  0.819984  0.220984  1.090678  1
  H  H51  1  0.994272  -0.430744  0.860960  1
  H  H52  1  1.005728  -0.569256  1.139040  1
  H  H53  1  1.058668  -0.702431  0.839844  1
  H  H54  1  1.076936  -0.835255  1.119452  1
  H  H55  1  1.130354  -0.998646  0.829426  1
  H  H56  1  1.180016  -1.220984  0.909322  1
  S  S57  1  0.647420  0.591800  0.535980  1
  S  S58  1  0.352580  -0.591800  0.464020  1
  S  S59  1  0.852580  0.091800  0.964020  1
  S  S60  1  1.147420  -1.091800  1.035980  1
