# generated using pymatgen
data_H5C9S
_symmetry_space_group_name_H-M   'P 1'
_cell_length_a   6.43550000
_cell_length_b   20.06700000
_cell_length_c   12.09400000
_cell_angle_alpha   90.00000000
_cell_angle_beta   92.20000000
_cell_angle_gamma   90.00000000
_symmetry_Int_Tables_number   1
_chemical_formula_structural   H5C9S
_chemical_formula_sum   'H20 C36 S4'
_cell_volume   1560.68221100
_cell_formula_units_Z   4
loop_
 _symmetry_equiv_pos_site_id
 _symmetry_equiv_pos_as_xyz
  1  'x, y, z'
loop_
 _atom_site_type_symbol
 _atom_site_label
 _atom_site_symmetry_multiplicity
 _atom_site_fract_x
 _atom_site_fract_y
 _atom_site_fract_z
 _atom_site_occupancy
  C  C1  1  0.107600  0.507510  0.597700  1
  C  C2  1  0.186000  0.463360  0.519700  1
  C  C3  1  -0.073000  0.544390  0.580900  1
  C  C4  1  0.378800  0.432680  0.558500  1
  C  C5  1  0.073000  0.455610  0.419100  1
  C  C6  1  0.437700  0.454850  0.665100  1
  C  C7  1  -0.186000  0.536640  0.480300  1
  C  C8  1  0.509500  0.388460  0.505500  1
  C  C9  1  -0.107600  0.492490  0.402300  1
  C  C10  1  0.618900  0.432640  0.718900  1
  C  C11  1  -0.378800  0.567320  0.441500  1
  C  C12  1  0.691200  0.367290  0.558800  1
  C  C13  1  0.745000  0.389170  0.664500  1
  C  C14  1  -0.437700  0.545150  0.334900  1
  C  C15  1  -0.509500  0.611540  0.494500  1
  C  C16  1  -0.618900  0.567360  0.281100  1
  C  C17  1  -0.691200  0.632710  0.441200  1
  C  C18  1  -0.745000  0.610830  0.335500  1
  C  C19  1  -0.107600  0.007510  0.902300  1
  C  C20  1  -0.186000  -0.036640  0.980300  1
  C  C21  1  0.073000  0.044390  0.919100  1
  C  C22  1  -0.378800  -0.067320  0.941500  1
  C  C23  1  -0.073000  -0.044390  1.080900  1
  C  C24  1  -0.437700  -0.045150  0.834900  1
  C  C25  1  0.186000  0.036640  1.019700  1
  C  C26  1  -0.509500  -0.111540  0.994500  1
  C  C27  1  0.107600  -0.007510  1.097700  1
  C  C28  1  -0.618900  -0.067360  0.781100  1
  C  C29  1  0.378800  0.067320  1.058500  1
  C  C30  1  -0.691200  -0.132710  0.941200  1
  C  C31  1  -0.745000  -0.110830  0.835500  1
  C  C32  1  0.437700  0.045150  1.165100  1
  C  C33  1  0.509500  0.111540  1.005500  1
  C  C34  1  0.618900  0.067360  1.218900  1
  C  C35  1  0.691200  0.132710  1.058800  1
  C  C36  1  0.745000  0.110830  1.164500  1
  H  H37  1  -0.124906  0.578659  0.645245  1
  H  H38  1  0.124906  0.421341  0.354755  1
  H  H39  1  0.469244  0.370266  0.421593  1
  H  H40  1  0.661925  0.449241  0.803388  1
  H  H41  1  0.794208  0.332618  0.516598  1
  H  H42  1  0.890184  0.371746  0.705900  1
  H  H43  1  -0.469244  0.629734  0.578407  1
  H  H44  1  -0.661925  0.550759  0.196612  1
  H  H45  1  -0.794208  0.667382  0.483402  1
  H  H46  1  -0.890184  0.628254  0.294100  1
  H  H47  1  0.124906  0.078659  0.854755  1
  H  H48  1  -0.124906  -0.078659  1.145245  1
  H  H49  1  -0.469244  -0.129734  1.078407  1
  H  H50  1  -0.661925  -0.050759  0.696612  1
  H  H51  1  -0.794208  -0.167382  0.983402  1
  H  H52  1  -0.890184  -0.128254  0.794100  1
  H  H53  1  0.469244  0.129734  0.921593  1
  H  H54  1  0.661925  0.050759  1.303388  1
  H  H55  1  0.794208  0.167382  1.016598  1
  H  H56  1  0.890184  0.128254  1.205900  1
  S  S57  1  0.262820  0.511430  0.719080  1
  S  S58  1  -0.262820  0.488570  0.280920  1
  S  S59  1  -0.262820  0.011430  0.780920  1
  S  S60  1  0.262820  -0.011430  1.219080  1
