# generated using pymatgen
data_H7C11
_symmetry_space_group_name_H-M   'P 1'
_cell_length_a   15.91510000
_cell_length_b   10.28580000
_cell_length_c   27.03060000
_cell_angle_alpha   90.00000000
_cell_angle_beta   90.00000000
_cell_angle_gamma   90.00000000
_symmetry_Int_Tables_number   1
_chemical_formula_structural   H7C11
_chemical_formula_sum   'H56 C88'
_cell_volume   4424.89666645
_cell_formula_units_Z   8
loop_
 _symmetry_equiv_pos_site_id
 _symmetry_equiv_pos_as_xyz
  1  'x, y, z'
loop_
 _atom_site_type_symbol
 _atom_site_label
 _atom_site_symmetry_multiplicity
 _atom_site_fract_x
 _atom_site_fract_y
 _atom_site_fract_z
 _atom_site_occupancy
  C  C1  1  0.359430  0.395300  0.280470  1
  C  C2  1  0.361280  0.417000  0.228670  1
  C  C3  1  0.394320  0.487700  0.313780  1
  C  C4  1  0.399670  0.533700  0.209410  1
  C  C5  1  0.325960  0.327600  0.194940  1
  C  C6  1  0.432540  0.604700  0.294640  1
  C  C7  1  0.392900  0.469700  0.365430  1
  C  C8  1  0.433290  0.626400  0.242610  1
  C  C9  1  0.402300  0.552300  0.158090  1
  C  C10  1  0.327100  0.349100  0.144380  1
  C  C11  1  0.469040  0.693800  0.327830  1
  C  C12  1  0.427600  0.558000  0.397790  1
  C  C13  1  0.367000  0.464200  0.125080  1
  C  C14  1  0.288730  0.262100  0.109700  1
  C  C15  1  0.468910  0.673000  0.378360  1
  C  C16  1  0.425550  0.541400  0.450620  1
  C  C17  1  0.367500  0.485400  0.073130  1
  C  C18  1  0.289840  0.286900  0.060410  1
  C  C19  1  0.507750  0.761300  0.412290  1
  C  C20  1  0.462410  0.628600  0.481170  1
  C  C21  1  0.330100  0.399700  0.041680  1
  C  C22  1  0.505200  0.739700  0.461740  1
  C  C23  1  0.640570  0.604700  -0.219530  1
  C  C24  1  0.638720  0.583000  -0.271330  1
  C  C25  1  0.605680  0.512300  -0.186220  1
  C  C26  1  0.600330  0.466300  -0.290590  1
  C  C27  1  0.674040  0.672400  -0.305060  1
  C  C28  1  0.567460  0.395300  -0.205360  1
  C  C29  1  0.607100  0.530300  -0.134570  1
  C  C30  1  0.566710  0.373600  -0.257390  1
  C  C31  1  0.597700  0.447700  -0.341910  1
  C  C32  1  0.672900  0.650900  -0.355620  1
  C  C33  1  0.530960  0.306200  -0.172170  1
  C  C34  1  0.572400  0.442000  -0.102210  1
  C  C35  1  0.633000  0.535800  -0.374920  1
  C  C36  1  0.711270  0.737900  -0.390300  1
  C  C37  1  0.531090  0.327000  -0.121640  1
  C  C38  1  0.574450  0.458600  -0.049380  1
  C  C39  1  0.632500  0.514600  -0.426870  1
  C  C40  1  0.710160  0.713100  -0.439590  1
  C  C41  1  0.492250  0.238700  -0.087710  1
  C  C42  1  0.537590  0.371400  -0.018830  1
  C  C43  1  0.669900  0.600300  -0.458320  1
  C  C44  1  0.494800  0.260300  -0.038260  1
  C  C45  1  0.140570  0.895300  -0.219530  1
  C  C46  1  0.138720  0.917000  -0.271330  1
  C  C47  1  0.105680  0.987700  -0.186220  1
  C  C48  1  0.100330  1.033700  -0.290590  1
  C  C49  1  0.174040  0.827600  -0.305060  1
  C  C50  1  0.067460  1.104700  -0.205360  1
  C  C51  1  0.107100  0.969700  -0.134570  1
  C  C52  1  0.066710  1.126400  -0.257390  1
  C  C53  1  0.097700  1.052300  -0.341910  1
  C  C54  1  0.172900  0.849100  -0.355620  1
  C  C55  1  0.030960  1.193800  -0.172170  1
  C  C56  1  0.072400  1.058000  -0.102210  1
  C  C57  1  0.133000  0.964200  -0.374920  1
  C  C58  1  0.211270  0.762100  -0.390300  1
  C  C59  1  0.031090  1.173000  -0.121640  1
  C  C60  1  0.074450  1.041400  -0.049380  1
  C  C61  1  0.132500  0.985400  -0.426870  1
  C  C62  1  0.210160  0.786900  -0.439590  1
  C  C63  1  -0.007750  1.261300  -0.087710  1
  C  C64  1  0.037590  1.128600  -0.018830  1
  C  C65  1  0.169900  0.899700  -0.458320  1
  C  C66  1  -0.005200  1.239700  -0.038260  1
  C  C67  1  -0.140570  1.104700  0.280470  1
  C  C68  1  -0.138720  1.083000  0.228670  1
  C  C69  1  -0.105680  1.012300  0.313780  1
  C  C70  1  -0.100330  0.966300  0.209410  1
  C  C71  1  -0.174040  1.172400  0.194940  1
  C  C72  1  -0.067460  0.895300  0.294640  1
  C  C73  1  -0.107100  1.030300  0.365430  1
  C  C74  1  -0.066710  0.873600  0.242610  1
  C  C75  1  -0.097700  0.947700  0.158090  1
  C  C76  1  -0.172900  1.150900  0.144380  1
  C  C77  1  -0.030960  0.806200  0.327830  1
  C  C78  1  -0.072400  0.942000  0.397790  1
  C  C79  1  -0.133000  1.035800  0.125080  1
  C  C80  1  -0.211270  1.237900  0.109700  1
  C  C81  1  -0.031090  0.827000  0.378360  1
  C  C82  1  -0.074450  0.958600  0.450620  1
  C  C83  1  -0.132500  1.014600  0.073130  1
  C  C84  1  -0.210160  1.213100  0.060410  1
  C  C85  1  0.007750  0.738700  0.412290  1
  C  C86  1  -0.037590  0.871400  0.481170  1
  C  C87  1  -0.169900  1.100300  0.041680  1
  C  C88  1  0.005200  0.760300  0.461740  1
  H  H89  1  0.330629  0.305856  0.294964  1
  H  H90  1  0.296432  0.237786  0.208570  1
  H  H91  1  0.363268  0.382493  0.381255  1
  H  H92  1  0.460414  0.716681  0.227750  1
  H  H93  1  0.433279  0.639448  0.143135  1
  H  H94  1  0.498766  0.782985  0.313758  1
  H  H95  1  0.256999  0.172244  0.121442  1
  H  H96  1  0.394385  0.458260  0.468465  1
  H  H97  1  0.397906  0.571164  0.056683  1
  H  H98  1  0.258514  0.216486  0.035957  1
  H  H99  1  0.540887  0.849287  0.399865  1
  H  H100  1  0.457671  0.609500  0.521113  1
  H  H101  1  0.332371  0.421216  0.001840  1
  H  H102  1  0.537178  0.810823  0.485596  1
  H  H103  1  0.669371  0.694144  -0.205036  1
  H  H104  1  0.703568  0.762214  -0.291430  1
  H  H105  1  0.636732  0.617507  -0.118745  1
  H  H106  1  0.539586  0.283319  -0.272250  1
  H  H107  1  0.566721  0.360552  -0.356865  1
  H  H108  1  0.501234  0.217015  -0.186242  1
  H  H109  1  0.743001  0.827756  -0.378558  1
  H  H110  1  0.605615  0.541740  -0.031535  1
  H  H111  1  0.602094  0.428836  -0.443317  1
  H  H112  1  0.741486  0.783514  -0.464043  1
  H  H113  1  0.459113  0.150713  -0.100135  1
  H  H114  1  0.542329  0.390500  0.021113  1
  H  H115  1  0.667629  0.578784  -0.498160  1
  H  H116  1  0.462822  0.189177  -0.014404  1
  H  H117  1  0.169371  0.805856  -0.205036  1
  H  H118  1  0.203568  0.737786  -0.291430  1
  H  H119  1  0.136732  0.882493  -0.118745  1
  H  H120  1  0.039586  1.216681  -0.272250  1
  H  H121  1  0.066721  1.139448  -0.356865  1
  H  H122  1  0.001234  1.282985  -0.186242  1
  H  H123  1  0.243001  0.672244  -0.378558  1
  H  H124  1  0.105615  0.958260  -0.031535  1
  H  H125  1  0.102094  1.071164  -0.443317  1
  H  H126  1  0.241486  0.716486  -0.464043  1
  H  H127  1  -0.040887  1.349287  -0.100135  1
  H  H128  1  0.042329  1.109500  0.021113  1
  H  H129  1  0.167629  0.921216  -0.498160  1
  H  H130  1  -0.037178  1.310823  -0.014404  1
  H  H131  1  -0.169371  1.194144  0.294964  1
  H  H132  1  -0.203568  1.262214  0.208570  1
  H  H133  1  -0.136732  1.117507  0.381255  1
  H  H134  1  -0.039586  0.783319  0.227750  1
  H  H135  1  -0.066721  0.860552  0.143135  1
  H  H136  1  -0.001234  0.717015  0.313758  1
  H  H137  1  -0.243001  1.327756  0.121442  1
  H  H138  1  -0.105615  1.041740  0.468465  1
  H  H139  1  -0.102094  0.928836  0.056683  1
  H  H140  1  -0.241486  1.283514  0.035957  1
  H  H141  1  0.040887  0.650713  0.399865  1
  H  H142  1  -0.042329  0.890500  0.521113  1
  H  H143  1  -0.167629  1.078784  0.001840  1
  H  H144  1  0.037178  0.689177  0.485596  1
