# generated using pymatgen
data_H3C5S
_symmetry_space_group_name_H-M   'P 1'
_cell_length_a   8.33070000
_cell_length_b   9.70330000
_cell_length_c   10.87710000
_cell_angle_alpha   64.61040000
_cell_angle_beta   87.90000000
_cell_angle_gamma   88.90320000
_symmetry_Int_Tables_number   1
_chemical_formula_structural   H3C5S
_chemical_formula_sum   'H6 C10 S2'
_cell_volume   793.78990108
_cell_formula_units_Z   2
loop_
 _symmetry_equiv_pos_site_id
 _symmetry_equiv_pos_as_xyz
  1  'x, y, z'
loop_
 _atom_site_type_symbol
 _atom_site_label
 _atom_site_symmetry_multiplicity
 _atom_site_fract_x
 _atom_site_fract_y
 _atom_site_fract_z
 _atom_site_occupancy
  C  C1  1  0.361830  0.932330  0.984800  1
  C  C2  1  0.384370  1.091880  0.911250  1
  C  C3  1  0.476360  0.838270  1.074040  1
  C  C4  1  0.244400  1.158500  0.832900  1
  C  C5  1  0.523640  1.161730  0.925960  1
  C  C6  1  0.129800  1.056200  0.847900  1
  C  C7  1  0.615630  0.908120  1.088750  1
  C  C8  1  0.638170  1.067670  1.015200  1
  C  C9  1  0.755600  0.841500  1.167100  1
  C  C10  1  0.870200  0.943800  1.152100  1
  H  H11  1  0.457686  0.714552  1.130295  1
  H  H12  1  0.226147  1.280034  0.765737  1
  H  H13  1  0.542314  1.285448  0.869705  1
  H  H14  1  0.024616  1.109536  0.786579  1
  H  H15  1  0.773853  0.719966  1.234263  1
  H  H16  1  0.975384  0.890464  1.213421  1
  S  S17  1  0.179870  0.870400  0.958900  1
  S  S18  1  0.820130  1.129600  1.041100  1
