# generated using pymatgen
data_HC11
_symmetry_space_group_name_H-M   'P 1'
_cell_length_a   8.72920000
_cell_length_b   11.04090000
_cell_length_c   19.42600000
_cell_angle_alpha   81.84200000
_cell_angle_beta   88.33280000
_cell_angle_gamma   75.96510000
_symmetry_Int_Tables_number   1
_chemical_formula_structural   HC11
_chemical_formula_sum   'H4 C44'
_cell_volume   1797.94538476
_cell_formula_units_Z   4
loop_
 _symmetry_equiv_pos_site_id
 _symmetry_equiv_pos_as_xyz
  1  'x, y, z'
loop_
 _atom_site_type_symbol
 _atom_site_label
 _atom_site_symmetry_multiplicity
 _atom_site_fract_x
 _atom_site_fract_y
 _atom_site_fract_z
 _atom_site_occupancy
  C  C1  1  0.495300  0.376100  0.528290  1
  C  C2  1  0.369300  0.450500  0.485980  1
  C  C3  1  0.626700  0.422000  0.542990  1
  C  C4  1  0.373300  0.578000  0.457010  1
  C  C5  1  0.239900  0.404500  0.469970  1
  C  C6  1  0.630700  0.549500  0.514020  1
  C  C7  1  0.755500  0.347800  0.584940  1
  C  C8  1  0.504700  0.623900  0.471710  1
  C  C9  1  0.244500  0.652200  0.415060  1
  C  C10  1  0.117000  0.477100  0.427290  1
  C  C11  1  0.760100  0.595500  0.530030  1
  C  C12  1  0.881300  0.395400  0.600390  1
  C  C13  1  0.118700  0.604600  0.399610  1
  C  C14  1  -0.012200  0.426800  0.409440  1
  C  C15  1  0.883000  0.522900  0.572710  1
  C  C16  1  1.009700  0.321400  0.644280  1
  C  C17  1  -0.009700  0.678600  0.355720  1
  C  C18  1  -0.130800  0.500500  0.367260  1
  C  C19  1  1.012200  0.573200  0.590560  1
  C  C20  1  1.131500  0.372500  0.659770  1
  C  C21  1  -0.131500  0.627500  0.340230  1
  C  C22  1  1.130800  0.499500  0.632740  1
  C  C23  1  0.481000  0.881700  0.032960  1
  C  C24  1  0.365200  0.955600  -0.015190  1
  C  C25  1  0.615400  0.923300  0.048790  1
  C  C26  1  0.384600  1.076700  -0.048790  1
  C  C27  1  0.231200  0.914700  -0.032050  1
  C  C28  1  0.634800  1.044400  0.015190  1
  C  C29  1  0.732200  0.850200  0.097300  1
  C  C30  1  0.519000  1.118300  -0.032960  1
  C  C31  1  0.267800  1.149800  -0.097300  1
  C  C32  1  0.120000  0.985500  -0.080240  1
  C  C33  1  0.768800  1.085300  0.032050  1
  C  C34  1  0.861300  0.893900  0.114080  1
  C  C35  1  0.138700  1.106100  -0.114080  1
  C  C36  1  -0.015200  0.942300  -0.098560  1
  C  C37  1  0.880000  1.014500  0.080240  1
  C  C38  1  0.976100  0.822700  0.165700  1
  C  C39  1  0.023900  1.177300  -0.165700  1
  C  C40  1  -0.119300  1.012100  -0.146990  1
  C  C41  1  1.015200  1.057700  0.098560  1
  C  C42  1  1.100000  0.867700  0.181640  1
  C  C43  1  -0.100000  1.132300  -0.181640  1
  C  C44  1  1.119300  0.987900  0.146990  1
  H  H45  1  0.490969  0.279608  0.550436  1
  H  H46  1  0.509031  0.720392  0.449564  1
  H  H47  1  0.466211  0.789866  0.058658  1
  H  H48  1  0.533789  1.210134  -0.058658  1
