# generated using pymatgen
data_HC7
_symmetry_space_group_name_H-M   'P 1'
_cell_length_a   6.95160000
_cell_length_b   33.04010000
_cell_length_c   20.54850000
_cell_angle_alpha   90.00000000
_cell_angle_beta   90.00000000
_cell_angle_gamma   90.00000000
_symmetry_Int_Tables_number   1
_chemical_formula_structural   HC7
_chemical_formula_sum   'H16 C112'
_cell_volume   4719.61151840
_cell_formula_units_Z   16
loop_
 _symmetry_equiv_pos_site_id
 _symmetry_equiv_pos_as_xyz
  1  'x, y, z'
loop_
 _atom_site_type_symbol
 _atom_site_label
 _atom_site_symmetry_multiplicity
 _atom_site_fract_x
 _atom_site_fract_y
 _atom_site_fract_z
 _atom_site_occupancy
  C  C1  1  1.000000  0.846800  0.431800  1
  C  C2  1  1.000000  0.862400  0.495300  1
  C  C3  1  1.000000  0.872600  0.376600  1
  C  C4  1  1.000000  0.904400  0.503800  1
  C  C5  1  1.000000  0.835100  0.547700  1
  C  C6  1  1.000000  0.915000  0.384500  1
  C  C7  1  1.000000  0.930600  0.446800  1
  C  C8  1  1.000000  0.919700  0.568700  1
  C  C9  1  1.000000  0.851800  0.606500  1
  C  C10  1  1.000000  0.892100  0.620800  1
  C  C11  1  1.000000  0.823000  0.660800  1
  C  C12  1  1.000000  0.909400  0.684600  1
  C  C13  1  1.000000  0.838500  0.721000  1
  C  C14  1  1.000000  0.881900  0.739400  1
  C  C15  1  1.000000  1.153200  -0.068200  1
  C  C16  1  1.000000  1.137600  -0.004700  1
  C  C17  1  1.000000  1.127400  -0.123400  1
  C  C18  1  1.000000  1.095600  0.003800  1
  C  C19  1  1.000000  1.164900  0.047700  1
  C  C20  1  1.000000  1.085000  -0.115500  1
  C  C21  1  1.000000  1.069400  -0.053200  1
  C  C22  1  1.000000  1.080300  0.068700  1
  C  C23  1  1.000000  1.148200  0.106500  1
  C  C24  1  1.000000  1.107900  0.120800  1
  C  C25  1  1.000000  1.177000  0.160800  1
  C  C26  1  1.000000  1.090600  0.184600  1
  C  C27  1  1.000000  1.161500  0.221000  1
  C  C28  1  1.000000  1.118100  0.239400  1
  C  C29  1  0.500000  1.346800  0.431800  1
  C  C30  1  0.500000  1.362400  0.495300  1
  C  C31  1  0.500000  1.372600  0.376600  1
  C  C32  1  0.500000  1.404400  0.503800  1
  C  C33  1  0.500000  1.335100  0.547700  1
  C  C34  1  0.500000  1.415000  0.384500  1
  C  C35  1  0.500000  1.430600  0.446800  1
  C  C36  1  0.500000  1.419700  0.568700  1
  C  C37  1  0.500000  1.351800  0.606500  1
  C  C38  1  0.500000  1.392100  0.620800  1
  C  C39  1  0.500000  1.323000  0.660800  1
  C  C40  1  0.500000  1.409400  0.684600  1
  C  C41  1  0.500000  1.338500  0.721000  1
  C  C42  1  0.500000  1.381900  0.739400  1
  C  C43  1  0.500000  0.653200  -0.068200  1
  C  C44  1  0.500000  0.637600  -0.004700  1
  C  C45  1  0.500000  0.627400  -0.123400  1
  C  C46  1  0.500000  0.595600  0.003800  1
  C  C47  1  0.500000  0.664900  0.047700  1
  C  C48  1  0.500000  0.585000  -0.115500  1
  C  C49  1  0.500000  0.569400  -0.053200  1
  C  C50  1  0.500000  0.580300  0.068700  1
  C  C51  1  0.500000  0.648200  0.106500  1
  C  C52  1  0.500000  0.607900  0.120800  1
  C  C53  1  0.500000  0.677000  0.160800  1
  C  C54  1  0.500000  0.590600  0.184600  1
  C  C55  1  0.500000  0.661500  0.221000  1
  C  C56  1  0.500000  0.618100  0.239400  1
  C  C57  1  0.500000  0.894400  0.438200  1
  C  C58  1  0.500000  0.869000  0.493500  1
  C  C59  1  0.500000  0.936900  0.442600  1
  C  C60  1  0.500000  0.888000  0.556900  1
  C  C61  1  0.500000  0.827300  0.487300  1
  C  C62  1  0.500000  0.955600  0.503700  1
  C  C63  1  0.500000  0.933200  0.558400  1
  C  C64  1  0.500000  0.864000  0.611600  1
  C  C65  1  0.500000  0.804500  0.542200  1
  C  C66  1  0.500000  0.821300  0.603800  1
  C  C67  1  0.500000  0.760900  0.537600  1
  C  C68  1  0.500000  0.797600  0.666000  1
  C  C69  1  0.500000  0.737300  0.590600  1
  C  C70  1  0.500000  0.755700  0.659000  1
  C  C71  1  0.500000  1.105600  0.938200  1
  C  C72  1  0.500000  1.131000  0.993500  1
  C  C73  1  0.500000  1.063100  0.942600  1
  C  C74  1  0.500000  1.112000  1.056900  1
  C  C75  1  0.500000  1.172700  0.987300  1
  C  C76  1  0.500000  1.044400  1.003700  1
  C  C77  1  0.500000  1.066800  1.058400  1
  C  C78  1  0.500000  1.136000  1.111600  1
  C  C79  1  0.500000  1.195500  1.042200  1
  C  C80  1  0.500000  1.178700  1.103800  1
  C  C81  1  0.500000  1.239100  1.037600  1
  C  C82  1  0.500000  1.202400  1.166000  1
  C  C83  1  0.500000  1.262700  1.090600  1
  C  C84  1  0.500000  1.244300  1.159000  1
  C  C85  1  1.000000  1.394400  0.438200  1
  C  C86  1  1.000000  1.369000  0.493500  1
  C  C87  1  1.000000  1.436900  0.442600  1
  C  C88  1  1.000000  1.388000  0.556900  1
  C  C89  1  1.000000  1.327300  0.487300  1
  C  C90  1  1.000000  1.455600  0.503700  1
  C  C91  1  1.000000  1.433200  0.558400  1
  C  C92  1  1.000000  1.364000  0.611600  1
  C  C93  1  1.000000  1.304500  0.542200  1
  C  C94  1  1.000000  1.321300  0.603800  1
  C  C95  1  1.000000  1.260900  0.537600  1
  C  C96  1  1.000000  1.297600  0.666000  1
  C  C97  1  1.000000  1.237300  0.590600  1
  C  C98  1  1.000000  1.255700  0.659000  1
  C  C99  1  1.000000  0.605600  0.938200  1
  C  C100  1  1.000000  0.631000  0.993500  1
  C  C101  1  1.000000  0.563100  0.942600  1
  C  C102  1  1.000000  0.612000  1.056900  1
  C  C103  1  1.000000  0.672700  0.987300  1
  C  C104  1  1.000000  0.544400  1.003700  1
  C  C105  1  1.000000  0.566800  1.058400  1
  C  C106  1  1.000000  0.636000  1.111600  1
  C  C107  1  1.000000  0.695500  1.042200  1
  C  C108  1  1.000000  0.678700  1.103800  1
  C  C109  1  1.000000  0.739100  1.037600  1
  C  C110  1  1.000000  0.702400  1.166000  1
  C  C111  1  1.000000  0.762700  1.090600  1
  C  C112  1  1.000000  0.744300  1.159000  1
  H  H113  1  1.000000  0.813763  0.425177  1
  H  H114  1  1.000000  0.963790  0.451008  1
  H  H115  1  1.000000  1.186237  -0.074823  1
  H  H116  1  1.000000  1.036210  -0.048992  1
  H  H117  1  0.500000  1.313763  0.425177  1
  H  H118  1  0.500000  1.463790  0.451008  1
  H  H119  1  0.500000  0.686237  -0.074823  1
  H  H120  1  0.500000  0.536210  -0.048992  1
  H  H121  1  0.500000  0.880473  0.389577  1
  H  H122  1  0.500000  0.951390  0.603236  1
  H  H123  1  0.500000  1.119527  0.889577  1
  H  H124  1  0.500000  1.048610  1.103236  1
  H  H125  1  1.000000  1.380473  0.389577  1
  H  H126  1  1.000000  1.451390  0.603236  1
  H  H127  1  1.000000  0.619527  0.889577  1
  H  H128  1  1.000000  0.548610  1.103236  1
