# generated using pymatgen
data_H7C11
_symmetry_space_group_name_H-M   'P 1'
_cell_length_a   7.50890000
_cell_length_b   8.20200000
_cell_length_c   18.69360000
_cell_angle_alpha   90.87100000
_cell_angle_beta   97.69800000
_cell_angle_gamma   102.08400000
_symmetry_Int_Tables_number   1
_chemical_formula_structural   H7C11
_chemical_formula_sum   'H14 C22'
_cell_volume   1114.53337079
_cell_formula_units_Z   2
loop_
 _symmetry_equiv_pos_site_id
 _symmetry_equiv_pos_as_xyz
  1  'x, y, z'
loop_
 _atom_site_type_symbol
 _atom_site_label
 _atom_site_symmetry_multiplicity
 _atom_site_fract_x
 _atom_site_fract_y
 _atom_site_fract_z
 _atom_site_occupancy
  C  C1  1  0.438300  0.562700  0.432990  1
  C  C2  1  0.369700  0.393800  0.447430  1
  C  C3  1  0.565200  0.670600  0.484780  1
  C  C4  1  0.434800  0.329400  0.515220  1
  C  C5  1  0.240100  0.286400  0.397520  1
  C  C6  1  0.630300  0.606200  0.552570  1
  C  C7  1  0.628900  0.840100  0.472310  1
  C  C8  1  0.561700  0.437300  0.567010  1
  C  C9  1  0.371100  0.159900  0.527690  1
  C  C10  1  0.176900  0.120300  0.410460  1
  C  C11  1  0.759900  0.713600  0.602480  1
  C  C12  1  0.752800  0.946000  0.522850  1
  C  C13  1  0.247200  0.054000  0.477150  1
  C  C14  1  0.044400  0.009600  0.360580  1
  C  C15  1  0.823100  0.879700  0.589540  1
  C  C16  1  0.817600  1.118600  0.511600  1
  C  C17  1  0.182400  -0.118600  0.488400  1
  C  C18  1  -0.012100  -0.153000  0.373540  1
  C  C19  1  0.955600  0.990400  0.639420  1
  C  C20  1  0.940500  1.218800  0.561160  1
  C  C21  1  0.059500  -0.218800  0.438840  1
  C  C22  1  1.012100  1.153000  0.626460  1
  H  H23  1  0.392259  0.610873  0.380686  1
  H  H24  1  0.185982  0.334242  0.346295  1
  H  H25  1  0.580064  0.891694  0.421194  1
  H  H26  1  0.607741  0.389127  0.619314  1
  H  H27  1  0.419936  0.108306  0.578806  1
  H  H28  1  0.814018  0.665758  0.653705  1
  H  H29  1  -0.017498  0.051870  0.309400  1
  H  H30  1  0.770373  1.177451  0.462170  1
  H  H31  1  0.229627  -0.177451  0.537830  1
  H  H32  1  -0.113862  -0.229897  0.331961  1
  H  H33  1  1.017498  0.948130  0.690600  1
  H  H34  1  0.981313  1.350867  0.548638  1
  H  H35  1  0.018687  -0.350867  0.451362  1
  H  H36  1  1.113862  1.229897  0.668039  1
