# generated using pymatgen
data_H5C9S
_symmetry_space_group_name_H-M   'P 1'
_cell_length_a   6.99580000
_cell_length_b   7.29150000
_cell_length_c   17.08020000
_cell_angle_alpha   92.90740000
_cell_angle_beta   91.31340000
_cell_angle_gamma   105.68230000
_symmetry_Int_Tables_number   1
_chemical_formula_structural   H5C9S
_chemical_formula_sum   'H10 C18 S2'
_cell_volume   837.13863994
_cell_formula_units_Z   2
loop_
 _symmetry_equiv_pos_site_id
 _symmetry_equiv_pos_as_xyz
  1  'x, y, z'
loop_
 _atom_site_type_symbol
 _atom_site_label
 _atom_site_symmetry_multiplicity
 _atom_site_fract_x
 _atom_site_fract_y
 _atom_site_fract_z
 _atom_site_occupancy
  C  C1  1  0.434800  0.331100  0.608060  1
  C  C2  1  0.522400  0.295500  0.535840  1
  C  C3  1  0.238500  0.245900  0.620800  1
  C  C4  1  0.736000  0.397000  0.538300  1
  C  C5  1  0.409300  0.179400  0.477140  1
  C  C6  1  0.790200  0.497000  0.604620  1
  C  C7  1  0.119000  0.121100  0.561340  1
  C  C8  1  0.204100  0.090500  0.487350  1
  C  C9  1  -0.083000  0.027200  0.573020  1
  C  C10  1  0.083000  -0.027200  0.426980  1
  C  C11  1  -0.204100  -0.090500  0.512650  1
  C  C12  1  -0.119000  -0.121100  0.438660  1
  C  C13  1  -0.409300  -0.179400  0.522860  1
  C  C14  1  -0.238500  -0.245900  0.379200  1
  C  C15  1  -0.522400  -0.295500  0.464160  1
  C  C16  1  -0.434800  -0.331100  0.391940  1
  C  C17  1  -0.736000  -0.397000  0.461700  1
  C  C18  1  -0.790200  -0.497000  0.395380  1
  H  H19  1  0.178325  0.276928  0.677371  1
  H  H20  1  0.847257  0.398047  0.493727  1
  H  H21  1  0.482415  0.157807  0.422435  1
  H  H22  1  0.949843  0.569214  0.603117  1
  H  H23  1  -0.147086  0.046053  0.630095  1
  H  H24  1  0.147086  -0.046053  0.369905  1
  H  H25  1  -0.482415  -0.157807  0.577565  1
  H  H26  1  -0.178325  -0.276928  0.322629  1
  H  H27  1  -0.847257  -0.398047  0.506273  1
  H  H28  1  -0.949843  -0.569214  0.396883  1
  S  S29  1  0.606530  0.489400  0.673180  1
  S  S30  1  -0.606530  -0.489400  0.326820  1
