# generated using pymatgen
data_H7C11
_symmetry_space_group_name_H-M   'P 1'
_cell_length_a   16.64090000
_cell_length_b   17.58270000
_cell_length_c   18.89030000
_cell_angle_alpha   90.00000000
_cell_angle_beta   90.00000000
_cell_angle_gamma   90.00000000
_symmetry_Int_Tables_number   1
_chemical_formula_structural   H7C11
_chemical_formula_sum   'H56 C88'
_cell_volume   5527.14975899
_cell_formula_units_Z   8
loop_
 _symmetry_equiv_pos_site_id
 _symmetry_equiv_pos_as_xyz
  1  'x, y, z'
loop_
 _atom_site_type_symbol
 _atom_site_label
 _atom_site_symmetry_multiplicity
 _atom_site_fract_x
 _atom_site_fract_y
 _atom_site_fract_z
 _atom_site_occupancy
  C  C1  1  0.656300  0.250000  0.522100  1
  C  C2  1  0.628400  0.179600  0.494500  1
  C  C3  1  0.628400  0.320400  0.494500  1
  C  C4  1  0.575100  0.180100  0.434400  1
  C  C5  1  0.651700  0.111000  0.523600  1
  C  C6  1  0.575100  0.319900  0.434400  1
  C  C7  1  0.651700  0.389000  0.523600  1
  C  C8  1  0.551500  0.250000  0.404900  1
  C  C9  1  0.549400  0.110400  0.407300  1
  C  C10  1  0.627100  0.042000  0.496400  1
  C  C11  1  0.549400  0.389600  0.407300  1
  C  C12  1  0.627100  0.458000  0.496400  1
  C  C13  1  0.572500  0.041500  0.436500  1
  C  C14  1  0.650800  -0.030300  0.525400  1
  C  C15  1  0.572500  0.458500  0.436500  1
  C  C16  1  0.650800  0.530300  0.525400  1
  C  C17  1  0.547200  -0.029200  0.408800  1
  C  C18  1  0.626300  -0.096700  0.497100  1
  C  C19  1  0.547200  0.529200  0.408800  1
  C  C20  1  0.626300  0.596700  0.497100  1
  C  C21  1  0.572100  -0.098400  0.437500  1
  C  C22  1  0.572100  0.598400  0.437500  1
  C  C23  1  0.843700  -0.250000  1.022100  1
  C  C24  1  0.871600  -0.179600  0.994500  1
  C  C25  1  0.871600  -0.320400  0.994500  1
  C  C26  1  0.924900  -0.180100  0.934400  1
  C  C27  1  0.848300  -0.111000  1.023600  1
  C  C28  1  0.924900  -0.319900  0.934400  1
  C  C29  1  0.848300  -0.389000  1.023600  1
  C  C30  1  0.948500  -0.250000  0.904900  1
  C  C31  1  0.950600  -0.110400  0.907300  1
  C  C32  1  0.872900  -0.042000  0.996400  1
  C  C33  1  0.950600  -0.389600  0.907300  1
  C  C34  1  0.872900  -0.458000  0.996400  1
  C  C35  1  0.927500  -0.041500  0.936500  1
  C  C36  1  0.849200  0.030300  1.025400  1
  C  C37  1  0.927500  -0.458500  0.936500  1
  C  C38  1  0.849200  -0.530300  1.025400  1
  C  C39  1  0.952800  0.029200  0.908800  1
  C  C40  1  0.873700  0.096700  0.997100  1
  C  C41  1  0.952800  -0.529200  0.908800  1
  C  C42  1  0.873700  -0.596700  0.997100  1
  C  C43  1  0.927900  0.098400  0.937500  1
  C  C44  1  0.927900  -0.598400  0.937500  1
  C  C45  1  1.156300  0.250000  -0.022100  1
  C  C46  1  1.128400  0.320400  0.005500  1
  C  C47  1  1.128400  0.179600  0.005500  1
  C  C48  1  1.075100  0.319900  0.065600  1
  C  C49  1  1.151700  0.389000  -0.023600  1
  C  C50  1  1.075100  0.180100  0.065600  1
  C  C51  1  1.151700  0.111000  -0.023600  1
  C  C52  1  1.051500  0.250000  0.095100  1
  C  C53  1  1.049400  0.389600  0.092700  1
  C  C54  1  1.127100  0.458000  0.003600  1
  C  C55  1  1.049400  0.110400  0.092700  1
  C  C56  1  1.127100  0.042000  0.003600  1
  C  C57  1  1.072500  0.458500  0.063500  1
  C  C58  1  1.150800  0.530300  -0.025400  1
  C  C59  1  1.072500  0.041500  0.063500  1
  C  C60  1  1.150800  -0.030300  -0.025400  1
  C  C61  1  1.047200  0.529200  0.091200  1
  C  C62  1  1.126300  0.596700  0.002900  1
  C  C63  1  1.047200  -0.029200  0.091200  1
  C  C64  1  1.126300  -0.096700  0.002900  1
  C  C65  1  1.072100  0.598400  0.062500  1
  C  C66  1  1.072100  -0.098400  0.062500  1
  C  C67  1  0.343700  -0.250000  0.477900  1
  C  C68  1  0.371600  -0.320400  0.505500  1
  C  C69  1  0.371600  -0.179600  0.505500  1
  C  C70  1  0.424900  -0.319900  0.565600  1
  C  C71  1  0.348300  -0.389000  0.476400  1
  C  C72  1  0.424900  -0.180100  0.565600  1
  C  C73  1  0.348300  -0.111000  0.476400  1
  C  C74  1  0.448500  -0.250000  0.595100  1
  C  C75  1  0.450600  -0.389600  0.592700  1
  C  C76  1  0.372900  -0.458000  0.503600  1
  C  C77  1  0.450600  -0.110400  0.592700  1
  C  C78  1  0.372900  -0.042000  0.503600  1
  C  C79  1  0.427500  -0.458500  0.563500  1
  C  C80  1  0.349200  -0.530300  0.474600  1
  C  C81  1  0.427500  -0.041500  0.563500  1
  C  C82  1  0.349200  0.030300  0.474600  1
  C  C83  1  0.452800  -0.529200  0.591200  1
  C  C84  1  0.373700  -0.596700  0.502900  1
  C  C85  1  0.452800  0.029200  0.591200  1
  C  C86  1  0.373700  0.096700  0.502900  1
  C  C87  1  0.427900  -0.598400  0.562500  1
  C  C88  1  0.427900  0.098400  0.562500  1
  H  H89  1  0.700260  0.250000  0.565588  1
  H  H90  1  0.691343  0.111331  0.570196  1
  H  H91  1  0.691343  0.388669  0.570196  1
  H  H92  1  0.513421  0.250000  0.357302  1
  H  H93  1  0.509286  0.109742  0.361021  1
  H  H94  1  0.509286  0.390258  0.361021  1
  H  H95  1  0.690039  -0.035103  0.572048  1
  H  H96  1  0.690039  0.535103  0.572048  1
  H  H97  1  0.506421  -0.030419  0.362984  1
  H  H98  1  0.650077  -0.148496  0.522157  1
  H  H99  1  0.506421  0.530419  0.362984  1
  H  H100  1  0.650077  0.648496  0.522157  1
  H  H101  1  0.550029  -0.151807  0.414224  1
  H  H102  1  0.550029  0.651807  0.414224  1
  H  H103  1  0.799740  -0.250000  1.065588  1
  H  H104  1  0.808657  -0.111331  1.070196  1
  H  H105  1  0.808657  -0.388669  1.070196  1
  H  H106  1  0.986579  -0.250000  0.857302  1
  H  H107  1  0.990714  -0.109742  0.861021  1
  H  H108  1  0.990714  -0.390258  0.861021  1
  H  H109  1  0.809961  0.035103  1.072048  1
  H  H110  1  0.809961  -0.535103  1.072048  1
  H  H111  1  0.993579  0.030419  0.862984  1
  H  H112  1  0.849923  0.148496  1.022157  1
  H  H113  1  0.993579  -0.530419  0.862984  1
  H  H114  1  0.849923  -0.648496  1.022157  1
  H  H115  1  0.949971  0.151807  0.914224  1
  H  H116  1  0.949971  -0.651807  0.914224  1
  H  H117  1  1.200260  0.250000  -0.065588  1
  H  H118  1  1.191343  0.388669  -0.070196  1
  H  H119  1  1.191343  0.111331  -0.070196  1
  H  H120  1  1.013421  0.250000  0.142698  1
  H  H121  1  1.009286  0.390258  0.138979  1
  H  H122  1  1.009286  0.109742  0.138979  1
  H  H123  1  1.190039  0.535103  -0.072048  1
  H  H124  1  1.190039  -0.035103  -0.072048  1
  H  H125  1  1.006421  0.530419  0.137016  1
  H  H126  1  1.150077  0.648496  -0.022157  1
  H  H127  1  1.006421  -0.030419  0.137016  1
  H  H128  1  1.150077  -0.148496  -0.022157  1
  H  H129  1  1.050029  0.651807  0.085776  1
  H  H130  1  1.050029  -0.151807  0.085776  1
  H  H131  1  0.299740  -0.250000  0.434412  1
  H  H132  1  0.308657  -0.388669  0.429804  1
  H  H133  1  0.308657  -0.111331  0.429804  1
  H  H134  1  0.486579  -0.250000  0.642698  1
  H  H135  1  0.490714  -0.390258  0.638979  1
  H  H136  1  0.490714  -0.109742  0.638979  1
  H  H137  1  0.309961  -0.535103  0.427952  1
  H  H138  1  0.309961  0.035103  0.427952  1
  H  H139  1  0.493579  -0.530419  0.637016  1
  H  H140  1  0.349923  -0.648496  0.477843  1
  H  H141  1  0.493579  0.030419  0.637016  1
  H  H142  1  0.349923  0.148496  0.477843  1
  H  H143  1  0.449971  -0.651807  0.585776  1
  H  H144  1  0.449971  0.151807  0.585776  1
