# generated using pymatgen
data_H7C11
_symmetry_space_group_name_H-M   'P 1'
_cell_length_a   8.67500000
_cell_length_b   17.63200000
_cell_length_c   14.65700000
_cell_angle_alpha   90.00000000
_cell_angle_beta   105.82400000
_cell_angle_gamma   90.00000000
_symmetry_Int_Tables_number   1
_chemical_formula_structural   H7C11
_chemical_formula_sum   'H28 C44'
_cell_volume   2156.94019670
_cell_formula_units_Z   4
loop_
 _symmetry_equiv_pos_site_id
 _symmetry_equiv_pos_as_xyz
  1  'x, y, z'
loop_
 _atom_site_type_symbol
 _atom_site_label
 _atom_site_symmetry_multiplicity
 _atom_site_fract_x
 _atom_site_fract_y
 _atom_site_fract_z
 _atom_site_occupancy
  C  C1  1  0.969700  0.078100  0.982100  1
  C  C2  1  0.870600  0.036400  1.025300  1
  C  C3  1  1.098400  0.043400  0.955200  1
  C  C4  1  0.901600  -0.043400  1.044800  1
  C  C5  1  0.740700  0.070100  1.051400  1
  C  C6  1  1.129400  -0.036400  0.974700  1
  C  C7  1  1.194600  0.084500  0.909700  1
  C  C8  1  1.030300  -0.078100  1.017900  1
  C  C9  1  0.805400  -0.084500  1.090300  1
  C  C10  1  0.647400  0.029000  1.097200  1
  C  C11  1  1.259300  -0.070100  0.948600  1
  C  C12  1  1.319500  0.050500  0.882900  1
  C  C13  1  0.680500  -0.050500  1.117100  1
  C  C14  1  0.518200  0.064000  1.125600  1
  C  C15  1  1.352600  -0.029000  0.902800  1
  C  C16  1  1.414200  0.090800  0.832700  1
  C  C17  1  0.585800  -0.090800  1.167300  1
  C  C18  1  0.432700  0.023500  1.173300  1
  C  C19  1  1.481800  -0.064000  0.874400  1
  C  C20  1  1.532300  0.054800  0.805000  1
  C  C21  1  0.467700  -0.054800  1.195000  1
  C  C22  1  1.567300  -0.023500  0.826700  1
  C  C23  1  1.030300  -0.421900  0.517900  1
  C  C24  1  1.129400  -0.463600  0.474700  1
  C  C25  1  0.901600  -0.456600  0.544800  1
  C  C26  1  1.098400  -0.543400  0.455200  1
  C  C27  1  1.259300  -0.429900  0.448600  1
  C  C28  1  0.870600  -0.536400  0.525300  1
  C  C29  1  0.805400  -0.415500  0.590300  1
  C  C30  1  0.969700  -0.578100  0.482100  1
  C  C31  1  1.194600  -0.584500  0.409700  1
  C  C32  1  1.352600  -0.471000  0.402800  1
  C  C33  1  0.740700  -0.570100  0.551400  1
  C  C34  1  0.680500  -0.449500  0.617100  1
  C  C35  1  1.319500  -0.550500  0.382900  1
  C  C36  1  1.481800  -0.436000  0.374400  1
  C  C37  1  0.647400  -0.529000  0.597200  1
  C  C38  1  0.585800  -0.409200  0.667300  1
  C  C39  1  1.414200  -0.590800  0.332700  1
  C  C40  1  1.567300  -0.476500  0.326700  1
  C  C41  1  0.518200  -0.564000  0.625600  1
  C  C42  1  0.467700  -0.445200  0.695000  1
  C  C43  1  1.532300  -0.554800  0.305000  1
  C  C44  1  0.432700  -0.523500  0.673300  1
  H  H45  1  0.946105  0.139002  0.969107  1
  H  H46  1  0.711287  0.130211  1.035569  1
  H  H47  1  1.171410  0.145182  0.894590  1
  H  H48  1  1.053895  -0.139002  1.030893  1
  H  H49  1  0.828590  -0.145182  1.105410  1
  H  H50  1  1.288713  -0.130211  0.964431  1
  H  H51  1  0.483664  0.123667  1.110347  1
  H  H52  1  1.395640  0.151319  0.814854  1
  H  H53  1  0.604360  -0.151319  1.185146  1
  H  H54  1  0.336523  0.053670  1.194052  1
  H  H55  1  1.516336  -0.123667  0.889653  1
  H  H56  1  1.598881  0.088692  0.765420  1
  H  H57  1  0.401119  -0.088692  1.234580  1
  H  H58  1  1.663477  -0.053670  0.805948  1
  H  H59  1  1.053895  -0.360998  0.530893  1
  H  H60  1  1.288713  -0.369789  0.464431  1
  H  H61  1  0.828590  -0.354818  0.605410  1
  H  H62  1  0.946105  -0.639002  0.469107  1
  H  H63  1  1.171410  -0.645182  0.394590  1
  H  H64  1  0.711287  -0.630211  0.535569  1
  H  H65  1  1.516336  -0.376333  0.389653  1
  H  H66  1  0.604360  -0.348681  0.685146  1
  H  H67  1  1.395640  -0.651319  0.314854  1
  H  H68  1  1.663477  -0.446330  0.305948  1
  H  H69  1  0.483664  -0.623667  0.610347  1
  H  H70  1  0.401119  -0.411308  0.734580  1
  H  H71  1  1.598881  -0.588692  0.265420  1
  H  H72  1  0.336523  -0.553670  0.694052  1
