# generated using pymatgen
data_H6C11
_symmetry_space_group_name_H-M   'P 1'
_cell_length_a   7.86230000
_cell_length_b   15.17310000
_cell_length_c   17.11910000
_cell_angle_alpha   74.72780000
_cell_angle_beta   85.93860000
_cell_angle_gamma   84.90980000
_symmetry_Int_Tables_number   1
_chemical_formula_structural   H6C11
_chemical_formula_sum   'H24 C44'
_cell_volume   1959.94604833
_cell_formula_units_Z   4
loop_
 _symmetry_equiv_pos_site_id
 _symmetry_equiv_pos_as_xyz
  1  'x, y, z'
loop_
 _atom_site_type_symbol
 _atom_site_label
 _atom_site_symmetry_multiplicity
 _atom_site_fract_x
 _atom_site_fract_y
 _atom_site_fract_z
 _atom_site_occupancy
  C  C1  1  0.953500  0.217470  0.951290  1
  C  C2  1  0.875600  0.136140  0.993560  1
  C  C3  1  1.013800  0.275340  0.994510  1
  C  C4  1  0.845900  0.115880  1.080910  1
  C  C5  1  0.822600  0.075010  0.952480  1
  C  C6  1  0.983800  0.255330  1.081460  1
  C  C7  1  1.100600  0.352960  0.954650  1
  C  C8  1  0.892300  0.178500  1.122560  1
  C  C9  1  0.768200  0.035220  1.121250  1
  C  C10  1  0.747100  -0.004320  0.993150  1
  C  C11  1  1.043300  0.313900  1.123290  1
  C  C12  1  1.158900  0.410220  0.996880  1
  C  C13  1  0.720400  -0.025500  1.080030  1
  C  C14  1  0.692800  -0.066500  0.951330  1
  C  C15  1  1.130400  0.389700  1.083180  1
  C  C16  1  1.246400  0.489700  0.956100  1
  C  C17  1  0.646600  -0.108700  1.121190  1
  C  C18  1  0.620000  -0.144800  0.992430  1
  C  C19  1  1.195200  0.448300  1.125680  1
  C  C20  1  1.303600  0.544900  0.998310  1
  C  C21  1  0.597200  -0.166700  1.079480  1
  C  C22  1  1.279100  0.523300  1.085010  1
  C  C23  1  1.046500  -0.217470  1.048710  1
  C  C24  1  1.124400  -0.136140  1.006440  1
  C  C25  1  0.986200  -0.275340  1.005490  1
  C  C26  1  1.154100  -0.115880  0.919090  1
  C  C27  1  1.177400  -0.075010  1.047520  1
  C  C28  1  1.016200  -0.255330  0.918540  1
  C  C29  1  0.899400  -0.352960  1.045350  1
  C  C30  1  1.107700  -0.178500  0.877440  1
  C  C31  1  1.231800  -0.035220  0.878750  1
  C  C32  1  1.252900  0.004320  1.006850  1
  C  C33  1  0.956700  -0.313900  0.876710  1
  C  C34  1  0.841100  -0.410220  1.003120  1
  C  C35  1  1.279600  0.025500  0.919970  1
  C  C36  1  1.307200  0.066500  1.048670  1
  C  C37  1  0.869600  -0.389700  0.916820  1
  C  C38  1  0.753600  -0.489700  1.043900  1
  C  C39  1  1.353400  0.108700  0.878810  1
  C  C40  1  1.380000  0.144800  1.007570  1
  C  C41  1  0.804800  -0.448300  0.874320  1
  C  C42  1  0.696400  -0.544900  1.001690  1
  C  C43  1  1.402800  0.166700  0.920520  1
  C  C44  1  0.720900  -0.523300  0.914990  1
  H  H45  1  0.967212  0.235748  0.884683  1
  H  H46  1  0.840865  0.089785  0.886116  1
  H  H47  1  1.123590  0.369384  0.888431  1
  H  H48  1  0.856869  0.167336  1.187570  1
  H  H49  1  0.743952  0.019049  1.187392  1
  H  H50  1  1.021020  0.299991  1.189435  1
  H  H51  1  0.707602  -0.053602  0.884986  1
  H  H52  1  1.270562  0.509062  0.889921  1
  H  H53  1  0.627047  -0.128894  1.187597  1
  H  H54  1  0.580752  -0.189072  0.956361  1
  H  H55  1  1.179963  0.435217  1.192028  1
  H  H56  1  0.540449  -0.229504  1.115119  1
  H  H57  1  1.032788  -0.235748  1.115317  1
  H  H58  1  1.159135  -0.089785  1.113884  1
  H  H59  1  0.876410  -0.369384  1.111569  1
  H  H60  1  1.143131  -0.167336  0.812430  1
  H  H61  1  1.256048  -0.019049  0.812608  1
  H  H62  1  0.978980  -0.299991  0.810565  1
  H  H63  1  1.292398  0.053602  1.115014  1
  H  H64  1  0.729438  -0.509062  1.110079  1
  H  H65  1  1.372953  0.128894  0.812403  1
  H  H66  1  1.419248  0.189072  1.043639  1
  H  H67  1  0.820037  -0.435217  0.807972  1
  H  H68  1  1.459551  0.229504  0.884881  1
