# generated using pymatgen
data_H7C13S2
_symmetry_space_group_name_H-M   'P 1'
_cell_length_a   7.98810000
_cell_length_b   11.59930000
_cell_length_c   13.03990000
_cell_angle_alpha   91.32900000
_cell_angle_beta   106.45900000
_cell_angle_gamma   106.81500000
_symmetry_Int_Tables_number   1
_chemical_formula_structural   H7C13S2
_chemical_formula_sum   'H14 C26 S4'
_cell_volume   1101.87667019
_cell_formula_units_Z   2
loop_
 _symmetry_equiv_pos_site_id
 _symmetry_equiv_pos_as_xyz
  1  'x, y, z'
loop_
 _atom_site_type_symbol
 _atom_site_label
 _atom_site_symmetry_multiplicity
 _atom_site_fract_x
 _atom_site_fract_y
 _atom_site_fract_z
 _atom_site_occupancy
  C  C1  1  0.172700  0.510700  0.569690  1
  C  C2  1  0.154100  0.571510  0.476590  1
  C  C3  1  0.017500  0.437760  0.595030  1
  C  C4  1  0.332800  0.638200  0.473300  1
  C  C5  1  -0.017500  0.562240  0.404970  1
  C  C6  1  0.474700  0.629600  0.555200  1
  C  C7  1  -0.154100  0.428490  0.523410  1
  C  C8  1  -0.172700  0.489300  0.430310  1
  C  C9  1  0.668600  0.685300  0.574900  1
  C  C10  1  -0.332800  0.361800  0.526700  1
  C  C11  1  0.813500  0.670500  0.651600  1
  C  C12  1  -0.474700  0.370400  0.444800  1
  C  C13  1  0.988400  0.742300  0.645500  1
  C  C14  1  0.969400  0.812700  0.559400  1
  C  C15  1  -0.668600  0.314700  0.425100  1
  C  C16  1  1.164800  0.749300  0.709600  1
  C  C17  1  1.121300  0.890600  0.536800  1
  C  C18  1  -0.813500  0.329500  0.348400  1
  C  C19  1  1.315500  0.825800  0.688000  1
  C  C20  1  1.292600  0.896300  0.601900  1
  C  C21  1  -0.988400  0.257700  0.354500  1
  C  C22  1  -0.969400  0.187300  0.440600  1
  C  C23  1  -1.164800  0.250700  0.290400  1
  C  C24  1  -1.121300  0.109400  0.463200  1
  C  C25  1  -1.315500  0.174200  0.312000  1
  C  C26  1  -1.292600  0.103700  0.398100  1
  H  H27  1  0.029756  0.390178  0.667490  1
  H  H28  1  0.360314  0.694491  0.409607  1
  H  H29  1  -0.029756  0.609822  0.332510  1
  H  H30  1  -0.360314  0.305509  0.590393  1
  H  H31  1  0.791692  0.607549  0.711789  1
  H  H32  1  1.185053  0.694531  0.777136  1
  H  H33  1  1.106404  0.946039  0.469460  1
  H  H34  1  -0.791692  0.392451  0.288211  1
  H  H35  1  1.453464  0.830568  0.739260  1
  H  H36  1  1.412602  0.957918  0.584919  1
  H  H37  1  -1.185053  0.305469  0.222864  1
  H  H38  1  -1.106404  0.053961  0.530540  1
  H  H39  1  -1.453464  0.169432  0.260740  1
  H  H40  1  -1.412602  0.042082  0.415081  1
  S  S41  1  0.396990  0.533900  0.646760  1
  S  S42  1  -0.396990  0.466100  0.353240  1
  S  S43  1  0.739460  0.789920  0.489040  1
  S  S44  1  -0.739460  0.210080  0.510960  1
