# generated using pymatgen
data_H8C13
_symmetry_space_group_name_H-M   'P 1'
_cell_length_a   17.32040000
_cell_length_b   9.19900000
_cell_length_c   34.23300000
_cell_angle_alpha   90.00000000
_cell_angle_beta   91.25900000
_cell_angle_gamma   90.00000000
_symmetry_Int_Tables_number   1
_chemical_formula_structural   H8C13
_chemical_formula_sum   'H64 C104'
_cell_volume   5453.03945354
_cell_formula_units_Z   8
loop_
 _symmetry_equiv_pos_site_id
 _symmetry_equiv_pos_as_xyz
  1  'x, y, z'
loop_
 _atom_site_type_symbol
 _atom_site_label
 _atom_site_symmetry_multiplicity
 _atom_site_fract_x
 _atom_site_fract_y
 _atom_site_fract_z
 _atom_site_occupancy
  C  C1  1  0.253100  0.880400  0.029790  1
  C  C2  1  0.192400  0.976800  0.019530  1
  C  C3  1  0.321900  0.875600  0.008010  1
  C  C4  1  0.199900  1.070600  -0.014530  1
  C  C5  1  0.126000  0.988200  0.042130  1
  C  C6  1  0.329800  0.970900  -0.025250  1
  C  C7  1  0.383000  0.783300  0.018500  1
  C  C8  1  0.266600  1.062000  -0.036780  1
  C  C9  1  0.139600  1.169100  -0.023090  1
  C  C10  1  0.066600  1.084800  0.033000  1
  C  C11  1  0.399400  0.971000  -0.045490  1
  C  C12  1  0.452100  0.781300  -0.001670  1
  C  C13  1  0.074900  1.179100  -0.000560  1
  C  C14  1  -0.000500  1.095000  0.055400  1
  C  C15  1  0.461100  0.879100  -0.034270  1
  C  C16  1  0.513600  0.690000  0.008300  1
  C  C17  1  0.011000  1.277900  -0.007400  1
  C  C18  1  -0.058000  1.187100  0.046300  1
  C  C19  1  0.531500  0.885000  -0.053600  1
  C  C20  1  0.582400  0.692000  -0.010700  1
  C  C21  1  -0.050900  1.283900  0.014300  1
  C  C22  1  0.593400  0.797600  -0.042000  1
  C  C23  1  0.646100  0.597000  -0.000700  1
  C  C24  1  0.665900  0.800000  -0.061600  1
  C  C25  1  0.712000  0.602300  -0.019700  1
  C  C26  1  0.722500  0.705200  -0.050200  1
  C  C27  1  0.246900  0.380400  -0.529790  1
  C  C28  1  0.307600  0.476800  -0.519530  1
  C  C29  1  0.178100  0.375600  -0.508010  1
  C  C30  1  0.300100  0.570600  -0.485470  1
  C  C31  1  0.374000  0.488200  -0.542130  1
  C  C32  1  0.170200  0.470900  -0.474750  1
  C  C33  1  0.117000  0.283300  -0.518500  1
  C  C34  1  0.233400  0.562000  -0.463220  1
  C  C35  1  0.360400  0.669100  -0.476910  1
  C  C36  1  0.433400  0.584800  -0.533000  1
  C  C37  1  0.100600  0.471000  -0.454510  1
  C  C38  1  0.047900  0.281300  -0.498330  1
  C  C39  1  0.425100  0.679100  -0.499440  1
  C  C40  1  0.500500  0.595000  -0.555400  1
  C  C41  1  0.038900  0.379100  -0.465730  1
  C  C42  1  -0.013600  0.190000  -0.508300  1
  C  C43  1  0.489000  0.777900  -0.492600  1
  C  C44  1  0.558000  0.687100  -0.546300  1
  C  C45  1  -0.031500  0.385000  -0.446400  1
  C  C46  1  -0.082400  0.192000  -0.489300  1
  C  C47  1  0.550900  0.783900  -0.514300  1
  C  C48  1  -0.093400  0.297600  -0.458000  1
  C  C49  1  -0.146100  0.097000  -0.499300  1
  C  C50  1  -0.165900  0.300000  -0.438400  1
  C  C51  1  -0.212000  0.102300  -0.480300  1
  C  C52  1  -0.222500  0.205200  -0.449800  1
  C  C53  1  0.746900  1.119600  -0.029790  1
  C  C54  1  0.807600  1.023200  -0.019530  1
  C  C55  1  0.678100  1.124400  -0.008010  1
  C  C56  1  0.800100  0.929400  0.014530  1
  C  C57  1  0.874000  1.011800  -0.042130  1
  C  C58  1  0.670200  1.029100  0.025250  1
  C  C59  1  0.617000  1.216700  -0.018500  1
  C  C60  1  0.733400  0.938000  0.036780  1
  C  C61  1  0.860400  0.830900  0.023090  1
  C  C62  1  0.933400  0.915200  -0.033000  1
  C  C63  1  0.600600  1.029000  0.045490  1
  C  C64  1  0.547900  1.218700  0.001670  1
  C  C65  1  0.925100  0.820900  0.000560  1
  C  C66  1  1.000500  0.905000  -0.055400  1
  C  C67  1  0.538900  1.120900  0.034270  1
  C  C68  1  0.486400  1.310000  -0.008300  1
  C  C69  1  0.989000  0.722100  0.007400  1
  C  C70  1  1.058000  0.812900  -0.046300  1
  C  C71  1  0.468500  1.115000  0.053600  1
  C  C72  1  0.417600  1.308000  0.010700  1
  C  C73  1  1.050900  0.716100  -0.014300  1
  C  C74  1  0.406600  1.202400  0.042000  1
  C  C75  1  0.353900  1.403000  0.000700  1
  C  C76  1  0.334100  1.200000  0.061600  1
  C  C77  1  0.288000  1.397700  0.019700  1
  C  C78  1  0.277500  1.294800  0.050200  1
  C  C79  1  -0.246900  0.619600  -0.470210  1
  C  C80  1  -0.307600  0.523200  -0.480470  1
  C  C81  1  -0.178100  0.624400  -0.491990  1
  C  C82  1  -0.300100  0.429400  -0.514530  1
  C  C83  1  -0.374000  0.511800  -0.457870  1
  C  C84  1  -0.170200  0.529100  -0.525250  1
  C  C85  1  -0.117000  0.716700  -0.481500  1
  C  C86  1  -0.233400  0.438000  -0.536780  1
  C  C87  1  -0.360400  0.330900  -0.523090  1
  C  C88  1  -0.433400  0.415200  -0.467000  1
  C  C89  1  -0.100600  0.529000  -0.545490  1
  C  C90  1  -0.047900  0.718700  -0.501670  1
  C  C91  1  -0.425100  0.320900  -0.500560  1
  C  C92  1  -0.500500  0.405000  -0.444600  1
  C  C93  1  -0.038900  0.620900  -0.534270  1
  C  C94  1  0.013600  0.810000  -0.491700  1
  C  C95  1  -0.489000  0.222100  -0.507400  1
  C  C96  1  -0.558000  0.312900  -0.453700  1
  C  C97  1  0.031500  0.615000  -0.553600  1
  C  C98  1  0.082400  0.808000  -0.510700  1
  C  C99  1  -0.550900  0.216100  -0.485700  1
  C  C100  1  0.093400  0.702400  -0.542000  1
  C  C101  1  0.146100  0.903000  -0.500700  1
  C  C102  1  0.165900  0.700000  -0.561600  1
  C  C103  1  0.212000  0.897700  -0.519700  1
  C  C104  1  0.222500  0.794800  -0.550200  1
  H  H105  1  0.246702  0.808049  0.055097  1
  H  H106  1  0.120284  0.918627  0.068040  1
  H  H107  1  0.376472  0.709616  0.043518  1
  H  H108  1  0.269379  1.127494  -0.063597  1
  H  H109  1  0.143203  1.241562  -0.048546  1
  H  H110  1  0.405702  1.044393  -0.070587  1
  H  H111  1  -0.008446  1.027207  0.081474  1
  H  H112  1  0.507515  0.612233  0.032447  1
  H  H113  1  0.009304  1.356586  -0.031599  1
  H  H114  1  -0.109459  1.183356  0.064542  1
  H  H115  1  0.538308  0.959726  -0.078373  1
  H  H116  1  -0.094577  1.365834  0.006091  1
  H  H117  1  0.644316  0.515663  0.022817  1
  H  H118  1  0.678223  0.875334  -0.085626  1
  H  H119  1  0.756621  0.523690  -0.010438  1
  H  H120  1  0.777254  0.711810  -0.065786  1
  H  H121  1  0.253298  0.308049  -0.555097  1
  H  H122  1  0.379716  0.418627  -0.568040  1
  H  H123  1  0.123528  0.209616  -0.543518  1
  H  H124  1  0.230621  0.627494  -0.436403  1
  H  H125  1  0.356797  0.741562  -0.451454  1
  H  H126  1  0.094298  0.544393  -0.429413  1
  H  H127  1  0.508446  0.527207  -0.581474  1
  H  H128  1  -0.007515  0.112233  -0.532447  1
  H  H129  1  0.490696  0.856586  -0.468401  1
  H  H130  1  0.609459  0.683356  -0.564542  1
  H  H131  1  -0.038308  0.459726  -0.421627  1
  H  H132  1  0.594577  0.865834  -0.506091  1
  H  H133  1  -0.144316  0.015663  -0.522817  1
  H  H134  1  -0.178223  0.375334  -0.414374  1
  H  H135  1  -0.256621  0.023690  -0.489562  1
  H  H136  1  -0.277254  0.211810  -0.434214  1
  H  H137  1  0.753298  1.191951  -0.055097  1
  H  H138  1  0.879716  1.081373  -0.068040  1
  H  H139  1  0.623528  1.290384  -0.043518  1
  H  H140  1  0.730621  0.872506  0.063597  1
  H  H141  1  0.856797  0.758438  0.048546  1
  H  H142  1  0.594298  0.955607  0.070587  1
  H  H143  1  1.008446  0.972793  -0.081474  1
  H  H144  1  0.492485  1.387767  -0.032447  1
  H  H145  1  0.990696  0.643414  0.031599  1
  H  H146  1  1.109459  0.816644  -0.064542  1
  H  H147  1  0.461692  1.040274  0.078373  1
  H  H148  1  1.094577  0.634166  -0.006091  1
  H  H149  1  0.355684  1.484337  -0.022817  1
  H  H150  1  0.321777  1.124666  0.085626  1
  H  H151  1  0.243379  1.476310  0.010438  1
  H  H152  1  0.222746  1.288190  0.065786  1
  H  H153  1  -0.253298  0.691951  -0.444903  1
  H  H154  1  -0.379716  0.581373  -0.431960  1
  H  H155  1  -0.123528  0.790384  -0.456482  1
  H  H156  1  -0.230621  0.372506  -0.563597  1
  H  H157  1  -0.356797  0.258438  -0.548546  1
  H  H158  1  -0.094298  0.455607  -0.570587  1
  H  H159  1  -0.508446  0.472793  -0.418526  1
  H  H160  1  0.007515  0.887767  -0.467553  1
  H  H161  1  -0.490696  0.143414  -0.531599  1
  H  H162  1  -0.609459  0.316644  -0.435458  1
  H  H163  1  0.038308  0.540274  -0.578373  1
  H  H164  1  -0.594577  0.134166  -0.493909  1
  H  H165  1  0.144316  0.984337  -0.477183  1
  H  H166  1  0.178223  0.624666  -0.585626  1
  H  H167  1  0.256621  0.976310  -0.510438  1
  H  H168  1  0.277254  0.788190  -0.565786  1
