# generated using pymatgen
data_H7C11
_symmetry_space_group_name_H-M   'P 1'
_cell_length_a   11.09900000
_cell_length_b   12.59900000
_cell_length_c   12.61400000
_cell_angle_alpha   74.57400000
_cell_angle_beta   82.86700000
_cell_angle_gamma   84.52800000
_symmetry_Int_Tables_number   1
_chemical_formula_structural   H7C11
_chemical_formula_sum   'H28 C44'
_cell_volume   1683.60472179
_cell_formula_units_Z   4
loop_
 _symmetry_equiv_pos_site_id
 _symmetry_equiv_pos_as_xyz
  1  'x, y, z'
loop_
 _atom_site_type_symbol
 _atom_site_label
 _atom_site_symmetry_multiplicity
 _atom_site_fract_x
 _atom_site_fract_y
 _atom_site_fract_z
 _atom_site_occupancy
  C  C1  1  0.390700  0.452600  0.496600  1
  C  C2  1  0.454500  0.414100  0.590900  1
  C  C3  1  0.433700  0.537200  0.404700  1
  C  C4  1  0.566300  0.462800  0.595300  1
  C  C5  1  0.414600  0.327800  0.682200  1
  C  C6  1  0.545500  0.585900  0.409100  1
  C  C7  1  0.372200  0.573500  0.309500  1
  C  C8  1  0.609300  0.547400  0.503400  1
  C  C9  1  0.627800  0.426500  0.690500  1
  C  C10  1  0.477000  0.290500  0.775200  1
  C  C11  1  0.585400  0.672200  0.317800  1
  C  C12  1  0.414400  0.656900  0.219600  1
  C  C13  1  0.585600  0.343100  0.780400  1
  C  C14  1  0.437400  0.203100  0.868000  1
  C  C15  1  0.523000  0.709500  0.224800  1
  C  C16  1  0.354400  0.691500  0.120400  1
  C  C17  1  0.645600  0.308500  0.879600  1
  C  C18  1  0.498000  0.173100  0.959600  1
  C  C19  1  0.562600  0.796900  0.132000  1
  C  C20  1  0.397700  0.772900  0.034400  1
  C  C21  1  0.602300  0.227100  0.965600  1
  C  C22  1  0.502000  0.826900  0.040400  1
  C  C23  1  0.609700  0.550800  -0.002300  1
  C  C24  1  0.541800  0.583800  -0.094800  1
  C  C25  1  0.570000  0.467500  0.093300  1
  C  C26  1  0.430000  0.532500  -0.093300  1
  C  C27  1  0.578900  0.667300  -0.189300  1
  C  C28  1  0.458200  0.416200  0.094800  1
  C  C29  1  0.635400  0.434400  0.186200  1
  C  C30  1  0.390300  0.449200  0.002300  1
  C  C31  1  0.364600  0.565600  -0.186200  1
  C  C32  1  0.513200  0.699900  -0.280200  1
  C  C33  1  0.421100  0.332700  0.189300  1
  C  C34  1  0.596900  0.353000  0.279500  1
  C  C35  1  0.403100  0.647000  -0.279500  1
  C  C36  1  0.549700  0.785100  -0.376800  1
  C  C37  1  0.486800  0.300100  0.280200  1
  C  C38  1  0.661400  0.321100  0.375400  1
  C  C39  1  0.338600  0.678900  -0.375400  1
  C  C40  1  0.484900  0.813500  -0.464800  1
  C  C41  1  0.450300  0.214900  0.376800  1
  C  C42  1  0.622200  0.240400  0.464700  1
  C  C43  1  0.377800  0.759600  -0.464700  1
  C  C44  1  0.515100  0.186500  0.464800  1
  H  H45  1  0.305312  0.415743  0.494681  1
  H  H46  1  0.331131  0.287820  0.680813  1
  H  H47  1  0.288375  0.535427  0.305216  1
  H  H48  1  0.694688  0.584257  0.505319  1
  H  H49  1  0.711625  0.464573  0.694784  1
  H  H50  1  0.668869  0.712180  0.319187  1
  H  H51  1  0.357510  0.157335  0.868957  1
  H  H52  1  0.272362  0.654333  0.109917  1
  H  H53  1  0.727638  0.345667  0.890083  1
  H  H54  1  0.462951  0.105730  1.028253  1
  H  H55  1  0.642490  0.842665  0.131043  1
  H  H56  1  0.348523  0.794990  -0.039769  1
  H  H57  1  0.651477  0.205010  1.039769  1
  H  H58  1  0.537049  0.894270  -0.028253  1
  H  H59  1  0.694482  0.590433  -0.004743  1
  H  H60  1  0.662575  0.708731  -0.192230  1
  H  H61  1  0.719864  0.473665  0.185875  1
  H  H62  1  0.305518  0.409567  0.004743  1
  H  H63  1  0.280136  0.526335  -0.185875  1
  H  H64  1  0.337425  0.291269  0.192230  1
  H  H65  1  0.631189  0.830792  -0.383718  1
  H  H66  1  0.744250  0.360088  0.380673  1
  H  H67  1  0.255750  0.639912  -0.380673  1
  H  H68  1  0.518828  0.879512  -0.535464  1
  H  H69  1  0.368811  0.169208  0.383718  1
  H  H70  1  0.676273  0.219057  0.535736  1
  H  H71  1  0.323727  0.780943  -0.535736  1
  H  H72  1  0.481172  0.120488  0.535464  1
