# generated using pymatgen
data_H7(C5S)3
_symmetry_space_group_name_H-M   'P 1'
_cell_length_a   8.27180000
_cell_length_b   10.50450000
_cell_length_c   16.63830000
_cell_angle_alpha   80.08500000
_cell_angle_beta   79.99200000
_cell_angle_gamma   71.71300000
_symmetry_Int_Tables_number   1
_chemical_formula_structural   H7(C5S)3
_chemical_formula_sum   'H14 C30 S6'
_cell_volume   1341.07463097
_cell_formula_units_Z   2
loop_
 _symmetry_equiv_pos_site_id
 _symmetry_equiv_pos_as_xyz
  1  'x, y, z'
loop_
 _atom_site_type_symbol
 _atom_site_label
 _atom_site_symmetry_multiplicity
 _atom_site_fract_x
 _atom_site_fract_y
 _atom_site_fract_z
 _atom_site_occupancy
  C  C1  1  0.399300  0.429600  0.479730  1
  C  C2  1  0.363500  0.479200  0.556210  1
  C  C3  1  0.537500  0.449300  0.421380  1
  C  C4  1  0.216000  0.435000  0.596400  1
  C  C5  1  0.462500  0.550700  0.578620  1
  C  C6  1  0.150000  0.366000  0.554200  1
  C  C7  1  0.636500  0.520800  0.443790  1
  C  C8  1  0.600700  0.570400  0.520270  1
  C  C9  1  0.006000  0.311000  0.585400  1
  C  C10  1  0.784000  0.565000  0.403600  1
  C  C11  1  -0.056200  0.241400  0.544000  1
  C  C12  1  0.850000  0.634000  0.445800  1
  C  C13  1  -0.204500  0.205100  0.587300  1
  C  C14  1  -0.255700  0.256400  0.664200  1
  C  C15  1  0.994000  0.689000  0.414600  1
  C  C16  1  -0.298000  0.132700  0.562500  1
  C  C17  1  -0.399100  0.238000  0.716400  1
  C  C18  1  1.056200  0.758600  0.456000  1
  C  C19  1  -0.438000  0.109000  0.616200  1
  C  C20  1  -0.492000  0.165000  0.691200  1
  C  C21  1  1.204500  0.794900  0.412700  1
  C  C22  1  1.255700  0.743600  0.335800  1
  C  C23  1  -0.644600  0.134500  0.733800  1
  C  C24  1  1.298000  0.867300  0.437500  1
  C  C25  1  1.399100  0.762000  0.283600  1
  C  C26  1  -0.707400  0.067900  0.692200  1
  C  C27  1  1.438000  0.891000  0.383800  1
  C  C28  1  1.492000  0.835000  0.308800  1
  C  C29  1  1.644600  0.865500  0.266200  1
  C  C30  1  1.707400  0.932100  0.307800  1
  H  H31  1  0.566595  0.410853  0.361438  1
  H  H32  1  0.154033  0.453856  0.659043  1
  H  H33  1  0.433405  0.589147  0.638562  1
  H  H34  1  0.845967  0.546144  0.340957  1
  H  H35  1  0.006521  0.217142  0.482299  1
  H  H36  1  -0.262254  0.095263  0.502155  1
  H  H37  1  -0.437627  0.279655  0.775449  1
  H  H38  1  0.993479  0.782858  0.517701  1
  H  H39  1  -0.709695  0.160669  0.794836  1
  H  H40  1  1.262254  0.904737  0.497845  1
  H  H41  1  1.437627  0.720345  0.224551  1
  H  H42  1  -0.830173  0.054015  0.723798  1
  H  H43  1  1.709695  0.839331  0.205164  1
  H  H44  1  1.830173  0.945985  0.276202  1
  S  S45  1  0.272200  0.339840  0.459510  1
  S  S46  1  0.727800  0.660160  0.540490  1
  S  S47  1  -0.120270  0.343330  0.680060  1
  S  S48  1  1.120270  0.656670  0.319940  1
  S  S49  1  -0.577170  0.023130  0.600920  1
  S  S50  1  1.577170  0.976870  0.399080  1
