# generated using pymatgen
data_H2C3
_symmetry_space_group_name_H-M   'P 1'
_cell_length_a   14.22100000
_cell_length_b   15.13300000
_cell_length_c   16.84500000
_cell_angle_alpha   90.00000000
_cell_angle_beta   90.00000000
_cell_angle_gamma   90.00000000
_symmetry_Int_Tables_number   1
_chemical_formula_structural   H2C3
_chemical_formula_sum   'H48 C72'
_cell_volume   3625.15169008
_cell_formula_units_Z   24
loop_
 _symmetry_equiv_pos_site_id
 _symmetry_equiv_pos_as_xyz
  1  'x, y, z'
loop_
 _atom_site_type_symbol
 _atom_site_label
 _atom_site_symmetry_multiplicity
 _atom_site_fract_x
 _atom_site_fract_y
 _atom_site_fract_z
 _atom_site_occupancy
  C  C1  1  0.658800  0.556400  0.525600  1
  C  C2  1  0.596200  0.523900  0.584600  1
  C  C3  1  0.650300  0.530400  0.446100  1
  C  C4  1  0.521500  0.465700  0.561200  1
  C  C5  1  0.605300  0.546500  0.664900  1
  C  C6  1  0.574600  0.473600  0.421700  1
  C  C7  1  0.714400  0.559100  0.386400  1
  C  C8  1  0.510300  0.443400  0.479300  1
  C  C9  1  0.462500  0.432200  0.620700  1
  C  C10  1  0.548100  0.511300  0.722800  1
  C  C11  1  0.566300  0.450800  0.340300  1
  C  C12  1  0.704600  0.534700  0.309700  1
  C  C13  1  0.474700  0.451000  0.700100  1
  C  C14  1  0.560300  0.530900  0.804800  1
  C  C15  1  0.629000  0.479500  0.286100  1
  C  C16  1  0.419400  0.412400  0.760300  1
  C  C17  1  0.506200  0.491700  0.860600  1
  C  C18  1  0.434700  0.430900  0.838600  1
  C  C19  1  0.841200  0.443600  0.025600  1
  C  C20  1  0.903800  0.476100  0.084600  1
  C  C21  1  0.849700  0.469600  -0.053900  1
  C  C22  1  0.978500  0.534300  0.061200  1
  C  C23  1  0.894700  0.453500  0.164900  1
  C  C24  1  0.925400  0.526400  -0.078300  1
  C  C25  1  0.785600  0.440900  -0.113600  1
  C  C26  1  0.989700  0.556600  -0.020700  1
  C  C27  1  1.037500  0.567800  0.120700  1
  C  C28  1  0.951900  0.488700  0.222800  1
  C  C29  1  0.933700  0.549200  -0.159700  1
  C  C30  1  0.795400  0.465300  -0.190300  1
  C  C31  1  1.025300  0.549000  0.200100  1
  C  C32  1  0.939700  0.469100  0.304800  1
  C  C33  1  0.871000  0.520500  -0.213900  1
  C  C34  1  1.080600  0.587600  0.260300  1
  C  C35  1  0.993800  0.508300  0.360600  1
  C  C36  1  1.065300  0.569100  0.338600  1
  C  C37  1  1.158800  -0.056400  0.474400  1
  C  C38  1  1.096200  -0.023900  0.415400  1
  C  C39  1  1.150300  -0.030400  0.553900  1
  C  C40  1  1.021500  0.034300  0.438800  1
  C  C41  1  1.105300  -0.046500  0.335100  1
  C  C42  1  1.074600  0.026400  0.578300  1
  C  C43  1  1.214400  -0.059100  0.613600  1
  C  C44  1  1.010300  0.056600  0.520700  1
  C  C45  1  0.962500  0.067800  0.379300  1
  C  C46  1  1.048100  -0.011300  0.277200  1
  C  C47  1  1.066300  0.049200  0.659700  1
  C  C48  1  1.204600  -0.034700  0.690300  1
  C  C49  1  0.974700  0.049000  0.299900  1
  C  C50  1  1.060300  -0.030900  0.195200  1
  C  C51  1  1.129000  0.020500  0.713900  1
  C  C52  1  0.919400  0.087600  0.239700  1
  C  C53  1  1.006200  0.008300  0.139400  1
  C  C54  1  0.934700  0.069100  0.161400  1
  C  C55  1  0.341200  1.056400  0.974400  1
  C  C56  1  0.403800  1.023900  0.915400  1
  C  C57  1  0.349700  1.030400  1.053900  1
  C  C58  1  0.478500  0.965700  0.938800  1
  C  C59  1  0.394700  1.046500  0.835100  1
  C  C60  1  0.425400  0.973600  1.078300  1
  C  C61  1  0.285600  1.059100  1.113600  1
  C  C62  1  0.489700  0.943400  1.020700  1
  C  C63  1  0.537500  0.932200  0.879300  1
  C  C64  1  0.451900  1.011300  0.777200  1
  C  C65  1  0.433700  0.950800  1.159700  1
  C  C66  1  0.295400  1.034700  1.190300  1
  C  C67  1  0.525300  0.951000  0.799900  1
  C  C68  1  0.439700  1.030900  0.695200  1
  C  C69  1  0.371000  0.979500  1.213900  1
  C  C70  1  0.580600  0.912400  0.739700  1
  C  C71  1  0.493800  0.991700  0.639400  1
  C  C72  1  0.565300  0.930900  0.661400  1
  H  H73  1  0.715165  0.602776  0.541852  1
  H  H74  1  0.659713  0.593937  0.683284  1
  H  H75  1  0.774456  0.602252  0.400215  1
  H  H76  1  0.450850  0.402061  0.460166  1
  H  H77  1  0.403531  0.388884  0.604219  1
  H  H78  1  0.508674  0.409001  0.318223  1
  H  H79  1  0.757208  0.559325  0.267246  1
  H  H80  1  0.613553  0.578129  0.825844  1
  H  H81  1  0.618738  0.458419  0.224209  1
  H  H82  1  0.362267  0.366192  0.745653  1
  H  H83  1  0.520139  0.509003  0.922923  1
  H  H84  1  0.390406  0.397561  0.882973  1
  H  H85  1  0.784835  0.397224  0.041852  1
  H  H86  1  0.840287  0.406063  0.183284  1
  H  H87  1  0.725544  0.397748  -0.099785  1
  H  H88  1  1.049150  0.597939  -0.039834  1
  H  H89  1  1.096469  0.611116  0.104219  1
  H  H90  1  0.991326  0.590999  -0.181777  1
  H  H91  1  0.742792  0.440675  -0.232754  1
  H  H92  1  0.886447  0.421871  0.325844  1
  H  H93  1  0.881262  0.541581  -0.275791  1
  H  H94  1  1.137733  0.633808  0.245653  1
  H  H95  1  0.979861  0.490997  0.422923  1
  H  H96  1  1.109594  0.602439  0.382973  1
  H  H97  1  1.215165  -0.102776  0.458148  1
  H  H98  1  1.159713  -0.093937  0.316716  1
  H  H99  1  1.274456  -0.102252  0.599785  1
  H  H100  1  0.950850  0.097939  0.539834  1
  H  H101  1  0.903531  0.111116  0.395781  1
  H  H102  1  1.008674  0.090999  0.681777  1
  H  H103  1  1.257208  -0.059325  0.732754  1
  H  H104  1  1.113553  -0.078129  0.174156  1
  H  H105  1  1.118738  0.041581  0.775791  1
  H  H106  1  0.862267  0.133808  0.254347  1
  H  H107  1  1.020139  -0.009003  0.077077  1
  H  H108  1  0.890406  0.102439  0.117027  1
  H  H109  1  0.284835  1.102776  0.958148  1
  H  H110  1  0.340287  1.093937  0.816716  1
  H  H111  1  0.225544  1.102252  1.099785  1
  H  H112  1  0.549150  0.902061  1.039834  1
  H  H113  1  0.596469  0.888884  0.895781  1
  H  H114  1  0.491326  0.909001  1.181777  1
  H  H115  1  0.242792  1.059325  1.232754  1
  H  H116  1  0.386447  1.078129  0.674156  1
  H  H117  1  0.381262  0.958419  1.275791  1
  H  H118  1  0.637733  0.866192  0.754347  1
  H  H119  1  0.479861  1.009003  0.577077  1
  H  H120  1  0.609594  0.897561  0.617027  1
