# generated using pymatgen
data_H5C7
_symmetry_space_group_name_H-M   'P 1'
_cell_length_a   9.36780000
_cell_length_b   10.39100000
_cell_length_c   10.45100000
_cell_angle_alpha   64.49120000
_cell_angle_beta   89.13900000
_cell_angle_gamma   79.15400000
_symmetry_Int_Tables_number   1
_chemical_formula_structural   H5C7
_chemical_formula_sum   'H10 C14'
_cell_volume   899.23567249
_cell_formula_units_Z   2
loop_
 _symmetry_equiv_pos_site_id
 _symmetry_equiv_pos_as_xyz
  1  'x, y, z'
loop_
 _atom_site_type_symbol
 _atom_site_label
 _atom_site_symmetry_multiplicity
 _atom_site_fract_x
 _atom_site_fract_y
 _atom_site_fract_z
 _atom_site_occupancy
  C  C1  1  0.544100  0.410400  0.429500  1
  C  C2  1  0.397100  0.484200  0.412600  1
  C  C3  1  0.646800  0.426500  0.515400  1
  C  C4  1  0.353200  0.573500  0.484600  1
  C  C5  1  0.290900  0.470400  0.325800  1
  C  C6  1  0.602900  0.515800  0.587400  1
  C  C7  1  0.796600  0.356900  0.532000  1
  C  C8  1  0.455900  0.589600  0.570500  1
  C  C9  1  0.203400  0.643100  0.468000  1
  C  C10  1  0.149700  0.539300  0.313600  1
  C  C11  1  0.709100  0.529600  0.674200  1
  C  C12  1  0.895700  0.374300  0.613200  1
  C  C13  1  0.104300  0.625700  0.386800  1
  C  C14  1  0.850300  0.460700  0.686400  1
  H  H15  1  0.578642  0.340302  0.375698  1
  H  H16  1  0.318706  0.404699  0.266534  1
  H  H17  1  0.837569  0.286599  0.479799  1
  H  H18  1  0.421358  0.659698  0.624302  1
  H  H19  1  0.162431  0.713401  0.520201  1
  H  H20  1  0.072438  0.525186  0.244726  1
  H  H21  1  0.681294  0.595301  0.733466  1
  H  H22  1  1.009822  0.319806  0.619518  1
  H  H23  1  -0.009822  0.680194  0.380482  1
  H  H24  1  0.927562  0.474814  0.755274  1
