# generated using pymatgen
data_H7C11
_symmetry_space_group_name_H-M   'P 1'
_cell_length_a   17.58500000
_cell_length_b   7.25920000
_cell_length_c   15.31460000
_cell_angle_alpha   90.00000000
_cell_angle_beta   90.62700000
_cell_angle_gamma   90.00000000
_symmetry_Int_Tables_number   1
_chemical_formula_structural   H7C11
_chemical_formula_sum   'H28 C44'
_cell_volume   1954.83806824
_cell_formula_units_Z   4
loop_
 _symmetry_equiv_pos_site_id
 _symmetry_equiv_pos_as_xyz
  1  'x, y, z'
loop_
 _atom_site_type_symbol
 _atom_site_label
 _atom_site_symmetry_multiplicity
 _atom_site_fract_x
 _atom_site_fract_y
 _atom_site_fract_z
 _atom_site_occupancy
  C  C1  1  0.579610  0.523900  0.510110  1
  C  C2  1  0.551720  0.365500  0.467170  1
  C  C3  1  0.529500  0.660200  0.542800  1
  C  C4  1  0.470500  0.339800  0.457200  1
  C  C5  1  0.600500  0.229700  0.433900  1
  C  C6  1  0.448280  0.634500  0.532830  1
  C  C7  1  0.556480  0.820700  0.583200  1
  C  C8  1  0.420390  0.476100  0.489890  1
  C  C9  1  0.443520  0.179300  0.416800  1
  C  C10  1  0.573040  0.071500  0.394300  1
  C  C11  1  0.399500  0.770300  0.566100  1
  C  C12  1  0.508060  0.956700  0.613720  1
  C  C13  1  0.491940  0.043300  0.386280  1
  C  C14  1  0.622400  -0.068400  0.361600  1
  C  C15  1  0.426960  0.928500  0.605700  1
  C  C16  1  0.535400  1.123000  0.652600  1
  C  C17  1  0.464600  -0.123000  0.347400  1
  C  C18  1  0.593800  -0.224100  0.324900  1
  C  C19  1  0.377600  1.068400  0.638400  1
  C  C20  1  0.486500  1.253300  0.682500  1
  C  C21  1  0.513500  -0.253300  0.317500  1
  C  C22  1  0.406200  1.224100  0.675100  1
  C  C23  1  0.420390  0.023900  0.989890  1
  C  C24  1  0.448280  -0.134500  1.032830  1
  C  C25  1  0.470500  0.160200  0.957200  1
  C  C26  1  0.529500  -0.160200  1.042800  1
  C  C27  1  0.399500  -0.270300  1.066100  1
  C  C28  1  0.551720  0.134500  0.967170  1
  C  C29  1  0.443520  0.320700  0.916800  1
  C  C30  1  0.579610  -0.023900  1.010110  1
  C  C31  1  0.556480  -0.320700  1.083200  1
  C  C32  1  0.426960  -0.428500  1.105700  1
  C  C33  1  0.600500  0.270300  0.933900  1
  C  C34  1  0.491940  0.456700  0.886280  1
  C  C35  1  0.508060  -0.456700  1.113720  1
  C  C36  1  0.377600  -0.568400  1.138400  1
  C  C37  1  0.573040  0.428500  0.894300  1
  C  C38  1  0.464600  0.623000  0.847400  1
  C  C39  1  0.535400  -0.623000  1.152600  1
  C  C40  1  0.406200  -0.724100  1.175100  1
  C  C41  1  0.622400  0.568400  0.861600  1
  C  C42  1  0.513500  0.753300  0.817500  1
  C  C43  1  0.486500  -0.753300  1.182500  1
  C  C44  1  0.593800  0.724100  0.824900  1
  H  H45  1  0.641418  0.541412  0.518232  1
  H  H46  1  0.662487  0.247912  0.439047  1
  H  H47  1  0.618160  0.840742  0.591282  1
  H  H48  1  0.358582  0.458588  0.481768  1
  H  H49  1  0.381840  0.159258  0.408718  1
  H  H50  1  0.337513  0.752088  0.560953  1
  H  H51  1  0.684704  -0.055773  0.364797  1
  H  H52  1  0.596554  1.151877  0.659803  1
  H  H53  1  0.403446  -0.151877  0.340197  1
  H  H54  1  0.635276  -0.325584  0.301394  1
  H  H55  1  0.315296  1.055773  0.635203  1
  H  H56  1  0.511141  1.378465  0.711771  1
  H  H57  1  0.488859  -0.378465  0.288229  1
  H  H58  1  0.364724  1.325584  0.698606  1
  H  H59  1  0.358582  0.041412  0.981768  1
  H  H60  1  0.337513  -0.252088  1.060953  1
  H  H61  1  0.381840  0.340742  0.908718  1
  H  H62  1  0.641418  -0.041412  1.018232  1
  H  H63  1  0.618160  -0.340742  1.091282  1
  H  H64  1  0.662487  0.252088  0.939047  1
  H  H65  1  0.315296  -0.555773  1.135203  1
  H  H66  1  0.403446  0.651877  0.840197  1
  H  H67  1  0.596554  -0.651877  1.159803  1
  H  H68  1  0.364724  -0.825584  1.198606  1
  H  H69  1  0.684704  0.555773  0.864797  1
  H  H70  1  0.488859  0.878465  0.788229  1
  H  H71  1  0.511141  -0.878465  1.211771  1
  H  H72  1  0.635276  0.825584  0.801394  1
