# generated using pymatgen
data_H5C9S
_symmetry_space_group_name_H-M   'P 1'
_cell_length_a   17.07990000
_cell_length_b   19.00920000
_cell_length_c   15.34110000
_cell_angle_alpha   90.00000000
_cell_angle_beta   109.98400000
_cell_angle_gamma   90.00000000
_symmetry_Int_Tables_number   1
_chemical_formula_structural   H5C9S
_chemical_formula_sum   'H40 C72 S8'
_cell_volume   4680.96725753
_cell_formula_units_Z   8
loop_
 _symmetry_equiv_pos_site_id
 _symmetry_equiv_pos_as_xyz
  1  'x, y, z'
loop_
 _atom_site_type_symbol
 _atom_site_label
 _atom_site_symmetry_multiplicity
 _atom_site_fract_x
 _atom_site_fract_y
 _atom_site_fract_z
 _atom_site_occupancy
  C  C1  1  0.990300  0.022100  0.125800  1
  C  C2  1  1.071800  0.030100  0.122300  1
  C  C3  1  0.939300  0.078600  0.121500  1
  C  C4  1  1.104900  -0.037000  0.123500  1
  C  C5  1  1.099600  0.095800  0.114300  1
  C  C6  1  1.057500  -0.092200  0.131000  1
  C  C7  1  0.967400  0.147100  0.117100  1
  C  C8  1  1.050300  0.156000  0.111300  1
  C  C9  1  0.921400  0.207000  0.114400  1
  C  C10  1  1.082400  0.225200  0.110400  1
  C  C11  1  0.952800  0.275000  0.112600  1
  C  C12  1  1.035700  0.284600  0.112400  1
  C  C13  1  0.905700  0.335600  0.116000  1
  C  C14  1  1.066000  0.354200  0.116200  1
  C  C15  1  0.936500  0.402100  0.118600  1
  C  C16  1  1.019100  0.410800  0.119400  1
  C  C17  1  0.897300  0.469200  0.122000  1
  C  C18  1  0.950600  0.522200  0.124800  1
  C  C19  1  1.009700  0.522100  0.374200  1
  C  C20  1  0.928200  0.530100  0.377700  1
  C  C21  1  1.060700  0.578600  0.378500  1
  C  C22  1  0.895100  0.463000  0.376500  1
  C  C23  1  0.900400  0.595800  0.385700  1
  C  C24  1  0.942500  0.407800  0.369000  1
  C  C25  1  1.032600  0.647100  0.382900  1
  C  C26  1  0.949700  0.656000  0.388700  1
  C  C27  1  1.078600  0.707000  0.385600  1
  C  C28  1  0.917600  0.725200  0.389600  1
  C  C29  1  1.047200  0.775000  0.387400  1
  C  C30  1  0.964300  0.784600  0.387600  1
  C  C31  1  1.094300  0.835600  0.384000  1
  C  C32  1  0.934000  0.854200  0.383800  1
  C  C33  1  1.063500  0.902100  0.381400  1
  C  C34  1  0.980900  0.910800  0.380600  1
  C  C35  1  1.102700  0.969200  0.378000  1
  C  C36  1  1.049400  1.022200  0.375200  1
  C  C37  1  1.009700  -0.022100  -0.125800  1
  C  C38  1  0.928200  -0.030100  -0.122300  1
  C  C39  1  1.060700  -0.078600  -0.121500  1
  C  C40  1  0.895100  0.037000  -0.123500  1
  C  C41  1  0.900400  -0.095800  -0.114300  1
  C  C42  1  0.942500  0.092200  -0.131000  1
  C  C43  1  1.032600  -0.147100  -0.117100  1
  C  C44  1  0.949700  -0.156000  -0.111300  1
  C  C45  1  1.078600  -0.207000  -0.114400  1
  C  C46  1  0.917600  -0.225200  -0.110400  1
  C  C47  1  1.047200  -0.275000  -0.112600  1
  C  C48  1  0.964300  -0.284600  -0.112400  1
  C  C49  1  1.094300  -0.335600  -0.116000  1
  C  C50  1  0.934000  -0.354200  -0.116200  1
  C  C51  1  1.063500  -0.402100  -0.118600  1
  C  C52  1  0.980900  -0.410800  -0.119400  1
  C  C53  1  1.102700  -0.469200  -0.122000  1
  C  C54  1  1.049400  -0.522200  -0.124800  1
  C  C55  1  0.990300  0.477900  -0.374200  1
  C  C56  1  1.071800  0.469900  -0.377700  1
  C  C57  1  0.939300  0.421400  -0.378500  1
  C  C58  1  1.104900  0.537000  -0.376500  1
  C  C59  1  1.099600  0.404200  -0.385700  1
  C  C60  1  1.057500  0.592200  -0.369000  1
  C  C61  1  0.967400  0.352900  -0.382900  1
  C  C62  1  1.050300  0.344000  -0.388700  1
  C  C63  1  0.921400  0.293000  -0.385600  1
  C  C64  1  1.082400  0.274800  -0.389600  1
  C  C65  1  0.952800  0.225000  -0.387400  1
  C  C66  1  1.035700  0.215400  -0.387600  1
  C  C67  1  0.905700  0.164400  -0.384000  1
  C  C68  1  1.066000  0.145800  -0.383800  1
  C  C69  1  0.936500  0.097900  -0.381400  1
  C  C70  1  1.019100  0.089200  -0.380600  1
  C  C71  1  0.897300  0.030800  -0.378000  1
  C  C72  1  0.950600  -0.022200  -0.375200  1
  H  H73  1  0.875820  0.068970  0.121580  1
  H  H74  1  1.166870  -0.046161  0.118650  1
  H  H75  1  1.162466  0.100285  0.110223  1
  H  H76  1  1.090113  -0.142397  0.133008  1
  H  H77  1  0.857206  0.200282  0.113654  1
  H  H78  1  1.145466  0.233043  0.108079  1
  H  H79  1  0.841727  0.330755  0.116657  1
  H  H80  1  1.129446  0.364884  0.116693  1
  H  H81  1  0.833928  0.478860  0.122411  1
  H  H82  1  0.918747  0.572387  0.125459  1
  H  H83  1  1.124180  0.568970  0.378420  1
  H  H84  1  0.833130  0.453839  0.381350  1
  H  H85  1  0.837534  0.600285  0.389777  1
  H  H86  1  0.909887  0.357603  0.366992  1
  H  H87  1  1.142794  0.700282  0.386346  1
  H  H88  1  0.854534  0.733043  0.391921  1
  H  H89  1  1.158273  0.830755  0.383343  1
  H  H90  1  0.870554  0.864884  0.383307  1
  H  H91  1  1.166072  0.978860  0.377589  1
  H  H92  1  1.081253  1.072387  0.374541  1
  H  H93  1  1.124180  -0.068970  -0.121580  1
  H  H94  1  0.833130  0.046161  -0.118650  1
  H  H95  1  0.837534  -0.100285  -0.110223  1
  H  H96  1  0.909887  0.142397  -0.133008  1
  H  H97  1  1.142794  -0.200282  -0.113654  1
  H  H98  1  0.854534  -0.233043  -0.108079  1
  H  H99  1  1.158273  -0.330755  -0.116657  1
  H  H100  1  0.870554  -0.364884  -0.116693  1
  H  H101  1  1.166072  -0.478860  -0.122411  1
  H  H102  1  1.081253  -0.572387  -0.125459  1
  H  H103  1  0.875820  0.431030  -0.378420  1
  H  H104  1  1.166870  0.546161  -0.381350  1
  H  H105  1  1.162466  0.399715  -0.389777  1
  H  H106  1  1.090113  0.642397  -0.366992  1
  H  H107  1  0.857206  0.299718  -0.386346  1
  H  H108  1  1.145466  0.266957  -0.391921  1
  H  H109  1  0.841727  0.169245  -0.383343  1
  H  H110  1  1.129446  0.135116  -0.383307  1
  H  H111  1  0.833928  0.021140  -0.377589  1
  H  H112  1  0.918747  -0.072387  -0.374541  1
  S  S113  1  0.956500  -0.064900  0.135200  1
  S  S114  1  1.052200  0.499100  0.126600  1
  S  S115  1  1.043500  0.435100  0.364800  1
  S  S116  1  0.947800  0.999100  0.373400  1
  S  S117  1  1.043500  0.064900  -0.135200  1
  S  S118  1  0.947800  -0.499100  -0.126600  1
  S  S119  1  0.956500  0.564900  -0.364800  1
  S  S120  1  1.052200  0.000900  -0.373400  1
