# generated using pymatgen
data_H5C9S
_symmetry_space_group_name_H-M   'P 1'
_cell_length_a   6.83720000
_cell_length_b   7.45960000
_cell_length_c   16.78330000
_cell_angle_alpha   99.29400000
_cell_angle_beta   93.84600000
_cell_angle_gamma   102.78600000
_symmetry_Int_Tables_number   1
_chemical_formula_structural   H5C9S
_chemical_formula_sum   'H10 C18 S2'
_cell_volume   819.09615036
_cell_formula_units_Z   2
loop_
 _symmetry_equiv_pos_site_id
 _symmetry_equiv_pos_as_xyz
  1  'x, y, z'
loop_
 _atom_site_type_symbol
 _atom_site_label
 _atom_site_symmetry_multiplicity
 _atom_site_fract_x
 _atom_site_fract_y
 _atom_site_fract_z
 _atom_site_occupancy
  C  C1  1  0.944300  0.852500  0.611480  1
  C  C2  1  1.022600  0.799400  0.536440  1
  C  C3  1  0.752300  0.772300  0.625130  1
  C  C4  1  1.229500  0.897500  0.538500  1
  C  C5  1  0.901900  0.671300  0.475420  1
  C  C6  1  1.298000  1.014100  0.607910  1
  C  C7  1  0.626000  0.635200  0.563500  1
  C  C8  1  0.700300  0.586600  0.486550  1
  C  C9  1  0.428000  0.545100  0.575970  1
  C  C10  1  0.572000  0.454900  0.424030  1
  C  C11  1  0.299700  0.413400  0.513450  1
  C  C12  1  0.374000  0.364800  0.436500  1
  C  C13  1  0.098100  0.328700  0.524580  1
  C  C14  1  0.247700  0.227700  0.374870  1
  C  C15  1  -0.022600  0.200600  0.463560  1
  C  C16  1  0.055700  0.147500  0.388520  1
  C  C17  1  -0.229500  0.102500  0.461500  1
  C  C18  1  -0.298000  -0.014100  0.392090  1
  H  H19  1  0.700752  0.816944  0.684195  1
  H  H20  1  1.328957  0.884206  0.490101  1
  H  H21  1  0.966130  0.636843  0.418137  1
  H  H22  1  1.457062  1.083761  0.606602  1
  H  H23  1  0.372771  0.578063  0.635390  1
  H  H24  1  0.627229  0.421937  0.364610  1
  H  H25  1  0.033870  0.363157  0.581863  1
  H  H26  1  0.299248  0.183056  0.315805  1
  H  H27  1  -0.328957  0.115794  0.509899  1
  H  H28  1  -0.457062  -0.083761  0.393398  1
  S  S29  1  1.123320  1.024200  0.679320  1
  S  S30  1  -0.123320  -0.024200  0.320680  1
