# generated using pymatgen
data_H2C9S
_symmetry_space_group_name_H-M   'P 1'
_cell_length_a   15.07200000
_cell_length_b   16.45400000
_cell_length_c   18.25200000
_cell_angle_alpha   90.00000000
_cell_angle_beta   103.06300000
_cell_angle_gamma   90.00000000
_symmetry_Int_Tables_number   1
_chemical_formula_structural   H2C9S
_chemical_formula_sum   'H16 C72 S8'
_cell_volume   4409.26547575
_cell_formula_units_Z   8
loop_
 _symmetry_equiv_pos_site_id
 _symmetry_equiv_pos_as_xyz
  1  'x, y, z'
loop_
 _atom_site_type_symbol
 _atom_site_label
 _atom_site_symmetry_multiplicity
 _atom_site_fract_x
 _atom_site_fract_y
 _atom_site_fract_z
 _atom_site_occupancy
  C  C1  1  0.974900  0.562300  0.424400  1
  C  C2  1  0.938600  0.496000  0.373900  1
  C  C3  1  0.921800  0.606100  0.458800  1
  C  C4  1  1.016000  0.447100  0.336200  1
  C  C5  1  0.845700  0.478500  0.359700  1
  C  C6  1  1.093900  0.503000  0.377900  1
  C  C7  1  0.827000  0.588800  0.447000  1
  C  C8  1  0.789100  0.526500  0.396400  1
  C  C9  1  0.769600  0.633100  0.483800  1
  C  C10  1  0.693700  0.511800  0.381100  1
  C  C11  1  0.676300  0.615800  0.472800  1
  C  C12  1  0.638500  0.555500  0.419900  1
  C  C13  1  0.620200  0.657900  0.511900  1
  C  C14  1  0.541200  0.538300  0.404100  1
  C  C15  1  0.527700  0.638300  0.498100  1
  C  C16  1  0.487900  0.582300  0.442700  1
  C  C17  1  0.452300  0.683100  0.542800  1
  C  C18  1  0.369000  0.632200  0.492200  1
  C  C19  1  0.025100  0.062300  0.075600  1
  C  C20  1  0.061400  -0.004000  0.126100  1
  C  C21  1  0.078200  0.106100  0.041200  1
  C  C22  1  -0.016000  -0.052900  0.163800  1
  C  C23  1  0.154300  -0.021500  0.140300  1
  C  C24  1  -0.093900  0.003000  0.122100  1
  C  C25  1  0.173000  0.088800  0.053000  1
  C  C26  1  0.210900  0.026500  0.103600  1
  C  C27  1  0.230400  0.133100  0.016200  1
  C  C28  1  0.306300  0.011800  0.118900  1
  C  C29  1  0.323700  0.115800  0.027200  1
  C  C30  1  0.361500  0.055500  0.080100  1
  C  C31  1  0.379800  0.157900  -0.011900  1
  C  C32  1  0.458800  0.038300  0.095900  1
  C  C33  1  0.472300  0.138300  0.001900  1
  C  C34  1  0.512100  0.082300  0.057300  1
  C  C35  1  0.547700  0.183100  -0.042800  1
  C  C36  1  0.631000  0.132200  0.007800  1
  C  C37  1  1.025100  0.437700  0.575600  1
  C  C38  1  1.061400  0.504000  0.626100  1
  C  C39  1  1.078200  0.393900  0.541200  1
  C  C40  1  0.984000  0.552900  0.663800  1
  C  C41  1  1.154300  0.521500  0.640300  1
  C  C42  1  0.906100  0.497000  0.622100  1
  C  C43  1  1.173000  0.411200  0.553000  1
  C  C44  1  1.210900  0.473500  0.603600  1
  C  C45  1  1.230400  0.366900  0.516200  1
  C  C46  1  1.306300  0.488200  0.618900  1
  C  C47  1  1.323700  0.384200  0.527200  1
  C  C48  1  1.361500  0.444500  0.580100  1
  C  C49  1  1.379800  0.342100  0.488100  1
  C  C50  1  1.458800  0.461700  0.595900  1
  C  C51  1  1.472300  0.361700  0.501900  1
  C  C52  1  1.512100  0.417700  0.557300  1
  C  C53  1  1.547700  0.316900  0.457200  1
  C  C54  1  1.631000  0.367800  0.507800  1
  C  C55  1  0.974900  0.937700  -0.075600  1
  C  C56  1  0.938600  1.004000  -0.126100  1
  C  C57  1  0.921800  0.893900  -0.041200  1
  C  C58  1  1.016000  1.052900  -0.163800  1
  C  C59  1  0.845700  1.021500  -0.140300  1
  C  C60  1  1.093900  0.997000  -0.122100  1
  C  C61  1  0.827000  0.911200  -0.053000  1
  C  C62  1  0.789100  0.973500  -0.103600  1
  C  C63  1  0.769600  0.866900  -0.016200  1
  C  C64  1  0.693700  0.988200  -0.118900  1
  C  C65  1  0.676300  0.884200  -0.027200  1
  C  C66  1  0.638500  0.944500  -0.080100  1
  C  C67  1  0.620200  0.842100  0.011900  1
  C  C68  1  0.541200  0.961700  -0.095900  1
  C  C69  1  0.527700  0.861700  -0.001900  1
  C  C70  1  0.487900  0.917700  -0.057300  1
  C  C71  1  0.452300  0.816900  0.042800  1
  C  C72  1  0.369000  0.867800  -0.007800  1
  H  H73  1  1.162370  0.489207  0.369608  1
  H  H74  1  0.798495  0.682679  0.522272  1
  H  H75  1  0.662393  0.466319  0.338968  1
  H  H76  1  0.300193  0.642096  0.501473  1
  H  H77  1  -0.162370  -0.010793  0.130392  1
  H  H78  1  0.201505  0.182679  -0.022272  1
  H  H79  1  0.337607  -0.033681  0.161032  1
  H  H80  1  0.699807  0.142096  -0.001473  1
  H  H81  1  0.837630  0.510793  0.630392  1
  H  H82  1  1.201505  0.317321  0.477728  1
  H  H83  1  1.337607  0.533681  0.661032  1
  H  H84  1  1.699807  0.357904  0.498527  1
  H  H85  1  1.162370  1.010793  -0.130392  1
  H  H86  1  0.798495  0.817321  0.022272  1
  H  H87  1  0.662393  1.033681  -0.161032  1
  H  H88  1  0.300193  0.857904  0.001473  1
  S  S89  1  1.088400  0.575700  0.429700  1
  S  S90  1  0.374000  0.568600  0.429700  1
  S  S91  1  -0.088400  0.075700  0.070300  1
  S  S92  1  0.626000  0.068600  0.070300  1
  S  S93  1  0.911600  0.424300  0.570300  1
  S  S94  1  1.626000  0.431400  0.570300  1
  S  S95  1  1.088400  0.924300  -0.070300  1
  S  S96  1  0.374000  0.931400  -0.070300  1
