# generated using pymatgen
data_H5C9S
_symmetry_space_group_name_H-M   'P 1'
_cell_length_a   8.99920000
_cell_length_b   10.49220000
_cell_length_c   11.26330000
_cell_angle_alpha   108.81440000
_cell_angle_beta   95.94680000
_cell_angle_gamma   92.10740000
_symmetry_Int_Tables_number   1
_chemical_formula_structural   H5C9S
_chemical_formula_sum   'H10 C18 S2'
_cell_volume   998.46861812
_cell_formula_units_Z   2
loop_
 _symmetry_equiv_pos_site_id
 _symmetry_equiv_pos_as_xyz
  1  'x, y, z'
loop_
 _atom_site_type_symbol
 _atom_site_label
 _atom_site_symmetry_multiplicity
 _atom_site_fract_x
 _atom_site_fract_y
 _atom_site_fract_z
 _atom_site_occupancy
  C  C1  1  0.855000  0.897000  0.374000  1
  C  C2  1  0.815000  0.991000  0.311000  1
  C  C3  1  0.771900  0.872500  0.452900  1
  C  C4  1  0.924400  1.000700  0.228300  1
  C  C5  1  0.685800  1.060500  0.334000  1
  C  C6  1  1.033200  0.922000  0.226400  1
  C  C7  1  0.636500  0.935600  0.477600  1
  C  C8  1  0.592700  1.032700  0.417100  1
  C  C9  1  0.542900  0.905000  0.559200  1
  C  C10  1  0.457100  1.095000  0.440800  1
  C  C11  1  0.407300  0.967300  0.582900  1
  C  C12  1  0.363500  1.064400  0.522400  1
  C  C13  1  0.314200  0.939500  0.666000  1
  C  C14  1  0.228100  1.127500  0.547100  1
  C  C15  1  0.185000  1.009000  0.689000  1
  C  C16  1  0.145000  1.103000  0.626000  1
  C  C17  1  0.075600  0.999300  0.771700  1
  C  C18  1  -0.033200  1.078000  0.773600  1
  H  H19  1  0.815104  0.800136  0.497673  1
  H  H20  1  0.924842  1.065764  0.168830  1
  H  H21  1  0.657933  1.135610  0.287606  1
  H  H22  1  1.109621  0.933441  0.159748  1
  H  H23  1  0.576379  0.830947  0.605354  1
  H  H24  1  0.423621  1.169053  0.394646  1
  H  H25  1  0.342067  0.864390  0.712394  1
  H  H26  1  0.184896  1.199864  0.502327  1
  H  H27  1  0.075158  0.934236  0.831170  1
  H  H28  1  -0.109621  1.066559  0.840252  1
  S  S29  1  1.023100  0.825500  0.328200  1
  S  S30  1  -0.023100  1.174500  0.671800  1
