# generated using pymatgen
data_H5C9S
_symmetry_space_group_name_H-M   'P 1'
_cell_length_a   6.61640000
_cell_length_b   11.18670000
_cell_length_c   14.85380000
_cell_angle_alpha   98.10200000
_cell_angle_beta   96.69500000
_cell_angle_gamma   98.41500000
_symmetry_Int_Tables_number   1
_chemical_formula_structural   H5C9S
_chemical_formula_sum   'H10 C18 S2'
_cell_volume   1066.10309516
_cell_formula_units_Z   2
loop_
 _symmetry_equiv_pos_site_id
 _symmetry_equiv_pos_as_xyz
  1  'x, y, z'
loop_
 _atom_site_type_symbol
 _atom_site_label
 _atom_site_symmetry_multiplicity
 _atom_site_fract_x
 _atom_site_fract_y
 _atom_site_fract_z
 _atom_site_occupancy
  C  C1  1  0.009100  0.575600  0.393730  1
  C  C2  1  0.007200  0.457300  0.342300  1
  C  C3  1  0.166400  0.627800  0.462540  1
  C  C4  1  -0.174800  0.429000  0.274400  1
  C  C5  1  0.166600  0.394800  0.360100  1
  C  C6  1  -0.292000  0.511600  0.272600  1
  C  C7  1  0.332300  0.564340  0.482230  1
  C  C8  1  0.334000  0.446310  0.429480  1
  C  C9  1  0.497900  0.616160  0.551940  1
  C  C10  1  0.502100  0.383840  0.448060  1
  C  C11  1  0.666000  0.553690  0.570520  1
  C  C12  1  0.667700  0.435660  0.517770  1
  C  C13  1  0.833400  0.605200  0.639900  1
  C  C14  1  0.833600  0.372200  0.537460  1
  C  C15  1  0.992800  0.542700  0.657700  1
  C  C16  1  0.990900  0.424400  0.606270  1
  C  C17  1  1.174800  0.571000  0.725600  1
  C  C18  1  1.292000  0.488400  0.727400  1
  H  H19  1  0.159668  0.718335  0.500990  1
  H  H20  1  -0.224108  0.344613  0.224102  1
  H  H21  1  0.160236  0.304098  0.319065  1
  H  H22  1  -0.424933  0.480644  0.218339  1
  H  H23  1  0.495929  0.706256  0.592246  1
  H  H24  1  0.504071  0.293744  0.407754  1
  H  H25  1  0.839764  0.695902  0.680935  1
  H  H26  1  0.840332  0.281665  0.499010  1
  H  H27  1  1.224108  0.655387  0.775898  1
  H  H28  1  1.424933  0.519356  0.781661  1
  S  S29  1  -0.201230  0.642630  0.355690  1
  S  S30  1  1.201230  0.357370  0.644310  1
