# generated using pymatgen
data_H5C9Se
_symmetry_space_group_name_H-M   'P 1'
_cell_length_a   6.26360000
_cell_length_b   18.05890000
_cell_length_c   13.89480000
_cell_angle_alpha   90.00000000
_cell_angle_beta   90.87900000
_cell_angle_gamma   90.00000000
_symmetry_Int_Tables_number   1
_chemical_formula_structural   H5C9Se
_chemical_formula_sum   'H20 C36 Se4'
_cell_volume   1571.50764750
_cell_formula_units_Z   4
loop_
 _symmetry_equiv_pos_site_id
 _symmetry_equiv_pos_as_xyz
  1  'x, y, z'
loop_
 _atom_site_type_symbol
 _atom_site_label
 _atom_site_symmetry_multiplicity
 _atom_site_fract_x
 _atom_site_fract_y
 _atom_site_fract_z
 _atom_site_occupancy
  C  C1  1  0.555000  0.548800  0.824000  1
  C  C2  1  0.415500  0.586000  0.759100  1
  C  C3  1  0.506000  0.475400  0.855000  1
  C  C4  1  0.739600  0.581210  0.867280  1
  C  C5  1  0.251100  0.541600  0.728500  1
  C  C6  1  0.625000  0.435640  0.918360  1
  C  C7  1  0.869400  0.541750  0.934640  1
  C  C8  1  0.812100  0.466870  0.959240  1
  C  C9  1  1.055100  0.573790  0.976300  1
  C  C10  1  0.944900  0.426210  1.023700  1
  C  C11  1  1.187900  0.533130  1.040760  1
  C  C12  1  1.130600  0.458250  1.065360  1
  C  C13  1  1.375000  0.564360  1.081640  1
  C  C14  1  1.260400  0.418790  1.132720  1
  C  C15  1  1.494000  0.524600  1.145000  1
  C  C16  1  1.445000  0.451200  1.176000  1
  C  C17  1  1.584500  0.414000  1.240900  1
  C  C18  1  1.748900  0.458400  1.271500  1
  C  C19  1  1.445000  0.048800  0.676000  1
  C  C20  1  1.584500  0.086000  0.740900  1
  C  C21  1  1.494000  -0.024600  0.645000  1
  C  C22  1  1.260400  0.081210  0.632720  1
  C  C23  1  1.748900  0.041600  0.771500  1
  C  C24  1  1.375000  -0.064360  0.581640  1
  C  C25  1  1.130600  0.041750  0.565360  1
  C  C26  1  1.187900  -0.033130  0.540760  1
  C  C27  1  0.944900  0.073790  0.523700  1
  C  C28  1  1.055100  -0.073790  0.476300  1
  C  C29  1  0.812100  0.033130  0.459240  1
  C  C30  1  0.869400  -0.041750  0.434640  1
  C  C31  1  0.625000  0.064360  0.418360  1
  C  C32  1  0.739600  -0.081210  0.367280  1
  C  C33  1  0.506000  0.024600  0.355000  1
  C  C34  1  0.555000  -0.048800  0.324000  1
  C  C35  1  0.415500  -0.086000  0.259100  1
  C  C36  1  0.251100  -0.041600  0.228500  1
  H  H37  1  0.433088  0.643637  0.734873  1
  H  H38  1  0.783128  0.638297  0.848153  1
  H  H39  1  0.150427  0.571874  0.676228  1
  H  H40  1  0.571038  0.379388  0.936173  1
  H  H41  1  1.096910  0.631249  0.958280  1
  H  H42  1  0.903090  0.368751  1.041720  1
  H  H43  1  1.428962  0.620612  1.063827  1
  H  H44  1  1.216872  0.361703  1.151847  1
  H  H45  1  1.566912  0.356363  1.265127  1
  H  H46  1  1.849573  0.428126  1.323772  1
  H  H47  1  1.566912  0.143637  0.765127  1
  H  H48  1  1.216872  0.138297  0.651847  1
  H  H49  1  1.849573  0.071874  0.823772  1
  H  H50  1  1.428962  -0.120612  0.563827  1
  H  H51  1  0.903090  0.131249  0.541720  1
  H  H52  1  1.096910  -0.131249  0.458280  1
  H  H53  1  0.571038  0.120612  0.436173  1
  H  H54  1  0.783128  -0.138297  0.348153  1
  H  H55  1  0.433088  -0.143637  0.234873  1
  H  H56  1  0.150427  -0.071874  0.176228  1
  Se  Se57  1  0.253370  0.447080  0.784440  1
  Se  Se58  1  1.746630  0.552920  1.215560  1
  Se  Se59  1  1.746630  -0.052920  0.715560  1
  Se  Se60  1  0.253370  0.052920  0.284440  1
