# generated using pymatgen
data_H5C9S
_symmetry_space_group_name_H-M   'P 1'
_cell_length_a   8.80770000
_cell_length_b   9.72640000
_cell_length_c   16.08410000
_cell_angle_alpha   100.05300000
_cell_angle_beta   92.16800000
_cell_angle_gamma   110.36300000
_symmetry_Int_Tables_number   1
_chemical_formula_structural   H5C9S
_chemical_formula_sum   'H10 C18 S2'
_cell_volume   1264.66690201
_cell_formula_units_Z   2
loop_
 _symmetry_equiv_pos_site_id
 _symmetry_equiv_pos_as_xyz
  1  'x, y, z'
loop_
 _atom_site_type_symbol
 _atom_site_label
 _atom_site_symmetry_multiplicity
 _atom_site_fract_x
 _atom_site_fract_y
 _atom_site_fract_z
 _atom_site_occupancy
  C  C1  1  0.948600  0.685800  0.533130  1
  C  C2  1  0.910000  0.752500  0.466840  1
  C  C3  1  0.830800  0.580800  0.564420  1
  C  C4  1  1.056200  0.870500  0.447800  1
  C  C5  1  0.751500  0.712900  0.433930  1
  C  C6  1  1.187100  0.880300  0.496300  1
  C  C7  1  0.665500  0.538560  0.532060  1
  C  C8  1  0.625500  0.606140  0.465880  1
  C  C9  1  0.539700  0.433150  0.565000  1
  C  C10  1  0.460300  0.566850  0.435000  1
  C  C11  1  0.374500  0.393860  0.534120  1
  C  C12  1  0.334500  0.461440  0.467940  1
  C  C13  1  0.248500  0.287100  0.566070  1
  C  C14  1  0.169200  0.419200  0.435580  1
  C  C15  1  0.090000  0.247500  0.533160  1
  C  C16  1  0.051400  0.314200  0.466870  1
  C  C17  1  -0.056200  0.129500  0.552200  1
  C  C18  1  -0.187100  0.119700  0.503700  1
  H  H19  1  0.868129  0.531479  0.614441  1
  H  H20  1  1.066603  0.944069  0.401877  1
  H  H21  1  0.725849  0.765907  0.382738  1
  H  H22  1  1.295146  0.965278  0.479625  1
  H  H23  1  0.570764  0.381019  0.615318  1
  H  H24  1  0.429236  0.618981  0.384682  1
  H  H25  1  0.274151  0.234093  0.617262  1
  H  H26  1  0.131871  0.468521  0.385559  1
  H  H27  1  -0.066603  0.055931  0.598123  1
  H  H28  1  -0.295146  0.034722  0.520375  1
  S  S29  1  1.157110  0.763560  0.569630  1
  S  S30  1  -0.157110  0.236440  0.430370  1
