# generated using pymatgen
data_H7C11
_symmetry_space_group_name_H-M   'P 1'
_cell_length_a   7.14110000
_cell_length_b   8.30110000
_cell_length_c   17.93350000
_cell_angle_alpha   87.36990000
_cell_angle_beta   82.47970000
_cell_angle_gamma   66.98380000
_symmetry_Int_Tables_number   1
_chemical_formula_structural   H7C11
_chemical_formula_sum   'H14 C22'
_cell_volume   970.02014897
_cell_formula_units_Z   2
loop_
 _symmetry_equiv_pos_site_id
 _symmetry_equiv_pos_as_xyz
  1  'x, y, z'
loop_
 _atom_site_type_symbol
 _atom_site_label
 _atom_site_symmetry_multiplicity
 _atom_site_fract_x
 _atom_site_fract_y
 _atom_site_fract_z
 _atom_site_occupancy
  C  C1  1  0.549500  0.563400  0.428400  1
  C  C2  1  0.629100  0.380700  0.442360  1
  C  C3  1  0.424700  0.682600  0.485370  1
  C  C4  1  0.575300  0.317400  0.514630  1
  C  C5  1  0.759200  0.259700  0.387100  1
  C  C6  1  0.370900  0.619300  0.557640  1
  C  C7  1  0.347800  0.866700  0.473100  1
  C  C8  1  0.450500  0.436600  0.571600  1
  C  C9  1  0.652200  0.133300  0.526900  1
  C  C10  1  0.833300  0.081300  0.398900  1
  C  C11  1  0.240800  0.740300  0.612900  1
  C  C12  1  0.224700  0.984600  0.529000  1
  C  C13  1  0.775300  0.015400  0.471000  1
  C  C14  1  0.964000  -0.043700  0.343400  1
  C  C15  1  0.166700  0.918700  0.601100  1
  C  C16  1  0.148700  1.171400  0.519000  1
  C  C17  1  0.851300  -0.171400  0.481000  1
  C  C18  1  1.028500  -0.217500  0.355200  1
  C  C19  1  0.036000  1.043700  0.656600  1
  C  C20  1  0.028900  1.281000  0.574000  1
  C  C21  1  0.971100  -0.281000  0.426000  1
  C  C22  1  -0.028500  1.217500  0.644800  1
  H  H23  1  0.584977  0.613240  0.372728  1
  H  H24  1  0.805066  0.306712  0.332176  1
  H  H25  1  0.384865  0.919810  0.418409  1
  H  H26  1  0.415023  0.386760  0.627272  1
  H  H27  1  0.615135  0.080190  0.581591  1
  H  H28  1  0.194934  0.693288  0.667824  1
  H  H29  1  1.018280  -0.003687  0.288218  1
  H  H30  1  0.184027  1.233665  0.466575  1
  H  H31  1  0.815973  -0.233665  0.533425  1
  H  H32  1  1.124766  -0.304606  0.308607  1
  H  H33  1  -0.018280  1.003687  0.711782  1
  H  H34  1  -0.021722  1.421427  0.561182  1
  H  H35  1  1.021722  -0.421427  0.438818  1
  H  H36  1  -0.124766  1.304606  0.691393  1
