# generated using pymatgen
data_H7C11
_symmetry_space_group_name_H-M   'P 1'
_cell_length_a   7.47250000
_cell_length_b   7.69350000
_cell_length_c   16.28710000
_cell_angle_alpha   90.16300000
_cell_angle_beta   100.71700000
_cell_angle_gamma   95.79900000
_symmetry_Int_Tables_number   1
_chemical_formula_structural   H7C11
_chemical_formula_sum   'H14 C22'
_cell_volume   915.07584109
_cell_formula_units_Z   2
loop_
 _symmetry_equiv_pos_site_id
 _symmetry_equiv_pos_as_xyz
  1  'x, y, z'
loop_
 _atom_site_type_symbol
 _atom_site_label
 _atom_site_symmetry_multiplicity
 _atom_site_fract_x
 _atom_site_fract_y
 _atom_site_fract_z
 _atom_site_occupancy
  C  C1  1  0.052760  0.439790  0.582040  1
  C  C2  1  -0.127130  0.393520  0.538280  1
  C  C3  1  0.179870  0.546590  0.545310  1
  C  C4  1  -0.179870  0.453410  0.454690  1
  C  C5  1  -0.257610  0.292300  0.574400  1
  C  C6  1  0.127130  0.606480  0.461720  1
  C  C7  1  0.358690  0.594360  0.588080  1
  C  C8  1  -0.052760  0.560210  0.417960  1
  C  C9  1  -0.358690  0.405640  0.411920  1
  C  C10  1  -0.433780  0.248290  0.531880  1
  C  C11  1  0.257610  0.707700  0.425600  1
  C  C12  1  0.485080  0.695120  0.551970  1
  C  C13  1  -0.485080  0.304880  0.448030  1
  C  C14  1  -0.567500  0.146420  0.568420  1
  C  C15  1  0.433780  0.751710  0.468120  1
  C  C16  1  0.666950  0.743210  0.595570  1
  C  C17  1  -0.666950  0.256790  0.404430  1
  C  C18  1  -0.738300  0.104310  0.524650  1
  C  C19  1  0.567500  0.853580  0.431580  1
  C  C20  1  0.788900  0.840260  0.558650  1
  C  C21  1  -0.788900  0.159740  0.441350  1
  C  C22  1  0.738300  0.895690  0.475350  1
  H  H23  1  0.094451  0.391978  0.645619  1
  H  H24  1  -0.220373  0.245675  0.638491  1
  H  H25  1  0.401460  0.551133  0.652427  1
  H  H26  1  -0.094451  0.608022  0.354381  1
  H  H27  1  -0.401460  0.448867  0.347573  1
  H  H28  1  0.220373  0.754325  0.361509  1
  H  H29  1  -0.537858  0.098648  0.632620  1
  H  H30  1  0.715012  0.703939  0.660155  1
  H  H31  1  -0.715012  0.296061  0.339845  1
  H  H32  1  -0.835092  0.025765  0.556482  1
  H  H33  1  0.537858  0.901352  0.367380  1
  H  H34  1  0.927014  0.873574  0.595774  1
  H  H35  1  -0.927014  0.126426  0.404226  1
  H  H36  1  0.835092  0.974235  0.443518  1
