# generated using pymatgen
data_H7C11
_symmetry_space_group_name_H-M   'P 1'
_cell_length_a   7.24600000
_cell_length_b   10.17900000
_cell_length_c   11.66900000
_cell_angle_alpha   105.71600000
_cell_angle_beta   102.00700000
_cell_angle_gamma   93.60900000
_symmetry_Int_Tables_number   1
_chemical_formula_structural   H7C11
_chemical_formula_sum   'H14 C22'
_cell_volume   803.83911011
_cell_formula_units_Z   2
loop_
 _symmetry_equiv_pos_site_id
 _symmetry_equiv_pos_as_xyz
  1  'x, y, z'
loop_
 _atom_site_type_symbol
 _atom_site_label
 _atom_site_symmetry_multiplicity
 _atom_site_fract_x
 _atom_site_fract_y
 _atom_site_fract_z
 _atom_site_occupancy
  C  C1  1  0.002100  0.568300  0.408700  1
  C  C2  1  0.131700  0.471900  0.423300  1
  C  C3  1  -0.129000  0.598100  0.484400  1
  C  C4  1  0.129000  0.401900  0.515600  1
  C  C5  1  0.266300  0.443400  0.351400  1
  C  C6  1  -0.131700  0.528100  0.576700  1
  C  C7  1  -0.258700  0.693200  0.471600  1
  C  C8  1  -0.002100  0.431700  0.591300  1
  C  C9  1  0.258700  0.306800  0.528400  1
  C  C10  1  0.395200  0.351200  0.366000  1
  C  C11  1  -0.266300  0.556600  0.648600  1
  C  C12  1  -0.391200  0.719700  0.542900  1
  C  C13  1  0.391200  0.280300  0.457100  1
  C  C14  1  0.535300  0.324800  0.295500  1
  C  C15  1  -0.395200  0.648800  0.634000  1
  C  C16  1  -0.526500  0.814000  0.528900  1
  C  C17  1  0.526500  0.186000  0.471100  1
  C  C18  1  0.661600  0.235800  0.313400  1
  C  C19  1  -0.535300  0.675200  0.704500  1
  C  C20  1  -0.657100  0.834800  0.597300  1
  C  C21  1  0.657100  0.165200  0.402700  1
  C  C22  1  -0.661600  0.764200  0.686600  1
  H  H23  1  0.003278  0.620618  0.337765  1
  H  H24  1  0.270961  0.495490  0.280666  1
  H  H25  1  -0.256422  0.749000  0.403192  1
  H  H26  1  -0.003278  0.379382  0.662235  1
  H  H27  1  0.256422  0.251000  0.596808  1
  H  H28  1  -0.270961  0.504510  0.719334  1
  H  H29  1  0.546397  0.375141  0.224412  1
  H  H30  1  -0.530286  0.873207  0.462524  1
  H  H31  1  0.530286  0.126793  0.537476  1
  H  H32  1  0.766150  0.221093  0.256329  1
  H  H33  1  -0.546397  0.624859  0.775588  1
  H  H34  1  -0.757806  0.907794  0.580609  1
  H  H35  1  0.757806  0.092206  0.419391  1
  H  H36  1  -0.766150  0.778907  0.743671  1
