# generated using pymatgen
data_H7C11
_symmetry_space_group_name_H-M   'P 1'
_cell_length_a   11.51500000
_cell_length_b   6.67200000
_cell_length_c   19.57300000
_cell_angle_alpha   90.00000000
_cell_angle_beta   92.36200000
_cell_angle_gamma   90.00000000
_symmetry_Int_Tables_number   1
_chemical_formula_structural   H7C11
_chemical_formula_sum   'H28 C44'
_cell_volume   1502.47839368
_cell_formula_units_Z   4
loop_
 _symmetry_equiv_pos_site_id
 _symmetry_equiv_pos_as_xyz
  1  'x, y, z'
loop_
 _atom_site_type_symbol
 _atom_site_label
 _atom_site_symmetry_multiplicity
 _atom_site_fract_x
 _atom_site_fract_y
 _atom_site_fract_z
 _atom_site_occupancy
  C  C1  1  0.108850  0.546800  0.472410  1
  C  C2  1  0.048790  0.371300  0.450100  1
  C  C3  1  0.061930  0.676200  0.521660  1
  C  C4  1  -0.061930  0.323800  0.478340  1
  C  C5  1  0.093490  0.241900  0.400670  1
  C  C6  1  -0.048790  0.628700  0.549900  1
  C  C7  1  0.119680  0.852600  0.543710  1
  C  C8  1  -0.108850  0.453200  0.527590  1
  C  C9  1  -0.119680  0.147400  0.456290  1
  C  C10  1  0.035250  0.069600  0.379150  1
  C  C11  1  -0.093490  0.758100  0.599330  1
  C  C12  1  0.074590  0.979000  0.592140  1
  C  C13  1  -0.074590  0.021000  0.407860  1
  C  C14  1  0.080370  -0.063200  0.329120  1
  C  C15  1  -0.035250  0.930400  0.620850  1
  C  C16  1  0.132930  1.158900  0.614430  1
  C  C17  1  -0.132930  -0.158900  0.385570  1
  C  C18  1  0.021230  -0.230500  0.309040  1
  C  C19  1  -0.080370  1.063200  0.670880  1
  C  C20  1  0.087060  1.278900  0.662140  1
  C  C21  1  -0.087060  -0.278900  0.337860  1
  C  C22  1  -0.021230  1.230500  0.690960  1
  C  C23  1  -0.108850  0.046800  0.027590  1
  C  C24  1  -0.048790  -0.128700  0.049900  1
  C  C25  1  -0.061930  0.176200  -0.021660  1
  C  C26  1  0.061930  -0.176200  0.021660  1
  C  C27  1  -0.093490  -0.258100  0.099330  1
  C  C28  1  0.048790  0.128700  -0.049900  1
  C  C29  1  -0.119680  0.352600  -0.043710  1
  C  C30  1  0.108850  -0.046800  -0.027590  1
  C  C31  1  0.119680  -0.352600  0.043710  1
  C  C32  1  -0.035250  -0.430400  0.120850  1
  C  C33  1  0.093490  0.258100  -0.099330  1
  C  C34  1  -0.074590  0.479000  -0.092140  1
  C  C35  1  0.074590  -0.479000  0.092140  1
  C  C36  1  -0.080370  -0.563200  0.170880  1
  C  C37  1  0.035250  0.430400  -0.120850  1
  C  C38  1  -0.132930  0.658900  -0.114430  1
  C  C39  1  0.132930  -0.658900  0.114430  1
  C  C40  1  -0.021230  -0.730500  0.190960  1
  C  C41  1  0.080370  0.563200  -0.170880  1
  C  C42  1  -0.087060  0.778900  -0.162140  1
  C  C43  1  0.087060  -0.778900  0.162140  1
  C  C44  1  0.021230  0.730500  -0.190960  1
  H  H45  1  0.193257  0.583173  0.451154  1
  H  H46  1  0.176995  0.276700  0.378029  1
  H  H47  1  0.203289  0.893250  0.522263  1
  H  H48  1  -0.193257  0.416827  0.548846  1
  H  H49  1  -0.203289  0.106750  0.477737  1
  H  H50  1  -0.176995  0.723300  0.621971  1
  H  H51  1  0.163660  -0.035639  0.305194  1
  H  H52  1  0.216170  1.206747  0.594125  1
  H  H53  1  -0.216170  -0.206747  0.405875  1
  H  H54  1  0.060346  -0.325127  0.270123  1
  H  H55  1  -0.163660  1.035639  0.694806  1
  H  H56  1  0.136954  1.413506  0.677239  1
  H  H57  1  -0.136954  -0.413506  0.322761  1
  H  H58  1  -0.060346  1.325127  0.729877  1
  H  H59  1  -0.193257  0.083173  0.048846  1
  H  H60  1  -0.176995  -0.223300  0.121971  1
  H  H61  1  -0.203289  0.393250  -0.022263  1
  H  H62  1  0.193257  -0.083173  -0.048846  1
  H  H63  1  0.203289  -0.393250  0.022263  1
  H  H64  1  0.176995  0.223300  -0.121971  1
  H  H65  1  -0.163660  -0.535639  0.194806  1
  H  H66  1  -0.216170  0.706747  -0.094125  1
  H  H67  1  0.216170  -0.706747  0.094125  1
  H  H68  1  -0.060346  -0.825127  0.229877  1
  H  H69  1  0.163660  0.535639  -0.194806  1
  H  H70  1  -0.136954  0.913506  -0.177239  1
  H  H71  1  0.136954  -0.913506  0.177239  1
  H  H72  1  0.060346  0.825127  -0.229877  1
