# generated using pymatgen
data_H7(C5S)3
_symmetry_space_group_name_H-M   'P 1'
_cell_length_a   10.53890000
_cell_length_b   17.78930000
_cell_length_c   18.97210000
_cell_angle_alpha   70.21810000
_cell_angle_beta   82.05210000
_cell_angle_gamma   86.48690000
_symmetry_Int_Tables_number   1
_chemical_formula_structural   H7(C5S)3
_chemical_formula_sum   'H28 C60 S12'
_cell_volume   3314.43248600
_cell_formula_units_Z   4
loop_
 _symmetry_equiv_pos_site_id
 _symmetry_equiv_pos_as_xyz
  1  'x, y, z'
loop_
 _atom_site_type_symbol
 _atom_site_label
 _atom_site_symmetry_multiplicity
 _atom_site_fract_x
 _atom_site_fract_y
 _atom_site_fract_z
 _atom_site_occupancy
  C  C1  1  0.282700  0.692000  0.472200  1
  C  C2  1  0.260300  0.663500  0.552200  1
  C  C3  1  0.274800  0.772500  0.428730  1
  C  C4  1  0.274400  0.579700  0.578880  1
  C  C5  1  0.225900  0.717500  0.592210  1
  C  C6  1  0.311600  0.543800  0.526300  1
  C  C7  1  0.240000  0.826200  0.468400  1
  C  C8  1  0.218500  0.798000  0.548200  1
  C  C9  1  0.329400  0.459100  0.538600  1
  C  C10  1  0.224000  0.910000  0.440790  1
  C  C11  1  0.363900  0.425350  0.483860  1
  C  C12  1  0.186600  0.946600  0.492700  1
  C  C13  1  0.380300  0.340300  0.513100  1
  C  C14  1  0.355100  0.311000  0.593200  1
  C  C15  1  0.167000  1.031700  0.479000  1
  C  C16  1  0.412900  0.287800  0.473300  1
  C  C17  1  0.365600  0.230300  0.634200  1
  C  C18  1  0.129000  1.067620  0.531570  1
  C  C19  1  0.423000  0.206600  0.514200  1
  C  C20  1  0.402000  0.177800  0.594400  1
  C  C21  1  0.113700  1.152500  0.500100  1
  C  C22  1  0.140900  1.179800  0.419900  1
  C  C23  1  0.419800  0.093500  0.625800  1
  C  C24  1  0.075800  1.207100  0.536700  1
  C  C25  1  0.132100  1.259500  0.376100  1
  C  C26  1  0.457000  0.059700  0.571600  1
  C  C27  1  0.062200  1.287500  0.494000  1
  C  C28  1  0.096100  1.313900  0.414100  1
  C  C29  1  0.081100  1.397500  0.380200  1
  C  C30  1  0.043000  1.435300  0.432100  1
  C  C31  1  0.717300  0.308000  0.527800  1
  C  C32  1  0.739700  0.336500  0.447800  1
  C  C33  1  0.725200  0.227500  0.571270  1
  C  C34  1  0.725600  0.420300  0.421120  1
  C  C35  1  0.774100  0.282500  0.407790  1
  C  C36  1  0.688400  0.456200  0.473700  1
  C  C37  1  0.760000  0.173800  0.531600  1
  C  C38  1  0.781500  0.202000  0.451800  1
  C  C39  1  0.670600  0.540900  0.461400  1
  C  C40  1  0.776000  0.090000  0.559210  1
  C  C41  1  0.636100  0.574650  0.516140  1
  C  C42  1  0.813400  0.053400  0.507300  1
  C  C43  1  0.619700  0.659700  0.486900  1
  C  C44  1  0.644900  0.689000  0.406800  1
  C  C45  1  0.833000  -0.031700  0.521000  1
  C  C46  1  0.587100  0.712200  0.526700  1
  C  C47  1  0.634400  0.769700  0.365800  1
  C  C48  1  0.871000  -0.067620  0.468430  1
  C  C49  1  0.577000  0.793400  0.485800  1
  C  C50  1  0.598000  0.822200  0.405600  1
  C  C51  1  0.886300  -0.152500  0.499900  1
  C  C52  1  0.859100  -0.179800  0.580100  1
  C  C53  1  0.580200  0.906500  0.374200  1
  C  C54  1  0.924200  -0.207100  0.463300  1
  C  C55  1  0.867900  -0.259500  0.623900  1
  C  C56  1  0.543000  0.940300  0.428400  1
  C  C57  1  0.937800  -0.287500  0.506000  1
  C  C58  1  0.903900  -0.313900  0.585900  1
  C  C59  1  0.918900  -0.397500  0.619800  1
  C  C60  1  0.957000  -0.435300  0.567900  1
  H  H61  1  0.294843  0.792468  0.366783  1
  H  H62  1  0.256880  0.543370  0.638995  1
  H  H63  1  0.205996  0.697964  0.654149  1
  H  H64  1  0.240230  0.945797  0.380480  1
  H  H65  1  0.376858  0.462076  0.423738  1
  H  H66  1  0.430202  0.309869  0.411245  1
  H  H67  1  0.345734  0.208670  0.696176  1
  H  H68  1  0.112670  1.032399  0.592028  1
  H  H69  1  0.406109  0.057860  0.686211  1
  H  H70  1  0.056805  1.186932  0.598689  1
  H  H71  1  0.152682  1.278645  0.314202  1
  H  H72  1  0.475188  -0.005058  0.594578  1
  H  H73  1  0.097537  1.430089  0.319149  1
  H  H74  1  0.028406  1.500248  0.407354  1
  H  H75  1  0.705157  0.207532  0.633217  1
  H  H76  1  0.743120  0.456630  0.361005  1
  H  H77  1  0.794004  0.302036  0.345851  1
  H  H78  1  0.759770  0.054203  0.619520  1
  H  H79  1  0.623142  0.537924  0.576262  1
  H  H80  1  0.569798  0.690131  0.588755  1
  H  H81  1  0.654266  0.791330  0.303824  1
  H  H82  1  0.887330  -0.032399  0.407972  1
  H  H83  1  0.593891  0.942140  0.313789  1
  H  H84  1  0.943195  -0.186932  0.401311  1
  H  H85  1  0.847318  -0.278645  0.685798  1
  H  H86  1  0.524812  1.005058  0.405422  1
  H  H87  1  0.902463  -0.430089  0.680851  1
  H  H88  1  0.971594  -0.500248  0.592646  1
  S  S89  1  0.324220  0.615050  0.435950  1
  S  S90  1  0.178750  0.876420  0.583750  1
  S  S91  1  0.314230  0.388630  0.628720  1
  S  S92  1  0.184410  1.100010  0.387440  1
  S  S93  1  0.465490  0.128120  0.481130  1
  S  S94  1  0.028290  1.369010  0.523660  1
  S  S95  1  0.675780  0.384950  0.564050  1
  S  S96  1  0.821250  0.123580  0.416250  1
  S  S97  1  0.685770  0.611370  0.371280  1
  S  S98  1  0.815590  -0.100010  0.612560  1
  S  S99  1  0.534510  0.871880  0.518870  1
  S  S100  1  0.971710  -0.369010  0.476340  1
