# generated using pymatgen
data_H5C7
_symmetry_space_group_name_H-M   'P 1'
_cell_length_a   8.18920000
_cell_length_b   8.46960000
_cell_length_c   14.20250000
_cell_angle_alpha   107.19300000
_cell_angle_beta   99.78400000
_cell_angle_gamma   91.84500000
_symmetry_Int_Tables_number   1
_chemical_formula_structural   H5C7
_chemical_formula_sum   'H10 C14'
_cell_volume   923.80739604
_cell_formula_units_Z   2
loop_
 _symmetry_equiv_pos_site_id
 _symmetry_equiv_pos_as_xyz
  1  'x, y, z'
loop_
 _atom_site_type_symbol
 _atom_site_label
 _atom_site_symmetry_multiplicity
 _atom_site_fract_x
 _atom_site_fract_y
 _atom_site_fract_z
 _atom_site_occupancy
  C  C1  1  0.394200  0.529800  0.571740  1
  C  C2  1  0.496300  0.397500  0.562020  1
  C  C3  1  0.395300  0.633000  0.509620  1
  C  C4  1  0.604700  0.367000  0.490380  1
  C  C5  1  0.496100  0.291500  0.622790  1
  C  C6  1  0.503700  0.602500  0.437980  1
  C  C7  1  0.292000  0.765800  0.515760  1
  C  C8  1  0.605800  0.470200  0.428260  1
  C  C9  1  0.708000  0.234200  0.484240  1
  C  C10  1  0.594800  0.165200  0.614880  1
  C  C11  1  0.503900  0.708500  0.377210  1
  C  C12  1  0.294700  0.863700  0.456200  1
  C  C13  1  0.705300  0.136300  0.543800  1
  C  C14  1  0.405200  0.834800  0.385120  1
  H  H15  1  0.313399  0.552584  0.627988  1
  H  H16  1  0.415355  0.308074  0.678862  1
  H  H17  1  0.206049  0.794099  0.569033  1
  H  H18  1  0.686601  0.447416  0.372012  1
  H  H19  1  0.793951  0.205901  0.430967  1
  H  H20  1  0.585521  0.088606  0.664556  1
  H  H21  1  0.584645  0.691926  0.321138  1
  H  H22  1  0.210123  0.963184  0.465238  1
  H  H23  1  0.789877  0.036816  0.534762  1
  H  H24  1  0.414479  0.911394  0.335444  1
