# generated using pymatgen
data_H5C9S
_symmetry_space_group_name_H-M   'P 1'
_cell_length_a   7.22740000
_cell_length_b   7.28480000
_cell_length_c   15.38960000
_cell_angle_alpha   89.63300000
_cell_angle_beta   89.35400000
_cell_angle_gamma   71.73200000
_symmetry_Int_Tables_number   1
_chemical_formula_structural   H5C9S
_chemical_formula_sum   'H10 C18 S2'
_cell_volume   769.37574445
_cell_formula_units_Z   2
loop_
 _symmetry_equiv_pos_site_id
 _symmetry_equiv_pos_as_xyz
  1  'x, y, z'
loop_
 _atom_site_type_symbol
 _atom_site_label
 _atom_site_symmetry_multiplicity
 _atom_site_fract_x
 _atom_site_fract_y
 _atom_site_fract_z
 _atom_site_occupancy
  C  C1  1  0.068800  0.815600  0.619010  1
  C  C2  1  -0.018000  0.789300  0.538680  1
  C  C3  1  0.263100  0.729200  0.633560  1
  C  C4  1  -0.224700  0.891000  0.539100  1
  C  C5  1  0.093800  0.681100  0.473830  1
  C  C6  1  -0.283800  0.980500  0.613700  1
  C  C7  1  0.381900  0.613100  0.567890  1
  C  C8  1  0.297000  0.592000  0.485600  1
  C  C9  1  0.583200  0.518100  0.580960  1
  C  C10  1  0.416800  0.481900  0.419040  1
  C  C11  1  0.703000  0.408000  0.514400  1
  C  C12  1  0.618100  0.386900  0.432110  1
  C  C13  1  0.906200  0.318900  0.526170  1
  C  C14  1  0.736900  0.270800  0.366440  1
  C  C15  1  1.018000  0.210700  0.461320  1
  C  C16  1  0.931200  0.184400  0.380990  1
  C  C17  1  1.224700  0.109000  0.460900  1
  C  C18  1  1.283800  0.019500  0.386300  1
  H  H19  1  0.322402  0.752528  0.696569  1
  H  H20  1  -0.329158  0.899634  0.486602  1
  H  H21  1  0.021306  0.665951  0.413059  1
  H  H22  1  -0.442441  1.050710  0.611775  1
  H  H23  1  0.647908  0.530089  0.644184  1
  H  H24  1  0.352092  0.469911  0.355816  1
  H  H25  1  0.978694  0.334049  0.586941  1
  H  H26  1  0.677598  0.247472  0.303431  1
  H  H27  1  1.329158  0.100366  0.513398  1
  H  H28  1  1.442441  -0.050710  0.388225  1
  S  S29  1  -0.102260  0.963500  0.691220  1
  S  S30  1  1.102260  0.036500  0.308780  1
