# generated using pymatgen
data_H5C9S
_symmetry_space_group_name_H-M   'P 1'
_cell_length_a   10.45700000
_cell_length_b   10.51000000
_cell_length_c   12.41800000
_cell_angle_alpha   90.00000000
_cell_angle_beta   114.22100000
_cell_angle_gamma   90.00000000
_symmetry_Int_Tables_number   1
_chemical_formula_structural   H5C9S
_chemical_formula_sum   'H20 C36 S4'
_cell_volume   1244.63480459
_cell_formula_units_Z   4
loop_
 _symmetry_equiv_pos_site_id
 _symmetry_equiv_pos_as_xyz
  1  'x, y, z'
loop_
 _atom_site_type_symbol
 _atom_site_label
 _atom_site_symmetry_multiplicity
 _atom_site_fract_x
 _atom_site_fract_y
 _atom_site_fract_z
 _atom_site_occupancy
  C  C1  1  0.509810  0.331410  0.608640  1
  C  C2  1  0.497500  0.465600  0.631200  1
  C  C3  1  0.623040  0.273820  0.706690  1
  C  C4  1  0.434630  0.261070  0.510110  1
  C  C5  1  0.591400  0.505200  0.737100  1
  C  C6  1  0.657940  0.149050  0.702990  1
  C  C7  1  0.466270  0.131160  0.503610  1
  C  C8  1  0.580730  0.073750  0.601940  1
  C  C9  1  0.387400  0.056140  0.403430  1
  C  C10  1  0.612600  -0.056140  0.596570  1
  C  C11  1  0.419270  -0.073750  0.398060  1
  C  C12  1  0.533730  -0.131160  0.496390  1
  C  C13  1  0.342060  -0.149050  0.297010  1
  C  C14  1  0.565370  -0.261070  0.489890  1
  C  C15  1  0.376960  -0.273820  0.293310  1
  C  C16  1  0.490190  -0.331410  0.391360  1
  C  C17  1  0.502500  -0.465600  0.368800  1
  C  C18  1  0.408600  -0.505200  0.262900  1
  C  C19  1  0.490190  0.831410  -0.108640  1
  C  C20  1  0.502500  0.965600  -0.131200  1
  C  C21  1  0.376960  0.773820  -0.206690  1
  C  C22  1  0.565370  0.761070  -0.010110  1
  C  C23  1  0.408600  1.005200  -0.237100  1
  C  C24  1  0.342060  0.649050  -0.202990  1
  C  C25  1  0.533730  0.631160  -0.003610  1
  C  C26  1  0.419270  0.573750  -0.101940  1
  C  C27  1  0.612600  0.556140  0.096570  1
  C  C28  1  0.387400  0.443860  -0.096570  1
  C  C29  1  0.580730  0.426250  0.101940  1
  C  C30  1  0.466270  0.368840  0.003610  1
  C  C31  1  0.657940  0.350950  0.202990  1
  C  C32  1  0.434630  0.238930  0.010110  1
  C  C33  1  0.623040  0.226180  0.206690  1
  C  C34  1  0.509810  0.168590  0.108640  1
  C  C35  1  0.497500  0.034400  0.131200  1
  C  C36  1  0.591400  -0.005200  0.237100  1
  H  H37  1  0.421284  0.533477  0.571396  1
  H  H38  1  0.349348  0.308629  0.436635  1
  H  H39  1  0.580094  0.607017  0.751779  1
  H  H40  1  0.746405  0.110014  0.779808  1
  H  H41  1  0.299966  0.099462  0.328573  1
  H  H42  1  0.700034  -0.099462  0.671427  1
  H  H43  1  0.253595  -0.110014  0.220192  1
  H  H44  1  0.650652  -0.308629  0.563365  1
  H  H45  1  0.578716  -0.533477  0.428604  1
  H  H46  1  0.419906  -0.607017  0.248221  1
  H  H47  1  0.578716  1.033477  -0.071396  1
  H  H48  1  0.650652  0.808629  0.063365  1
  H  H49  1  0.419906  1.107017  -0.251779  1
  H  H50  1  0.253595  0.610014  -0.279808  1
  H  H51  1  0.700034  0.599462  0.171427  1
  H  H52  1  0.299966  0.400538  -0.171427  1
  H  H53  1  0.746405  0.389986  0.279808  1
  H  H54  1  0.349348  0.191371  -0.063365  1
  H  H55  1  0.421284  -0.033477  0.071396  1
  H  H56  1  0.580094  -0.107017  0.251779  1
  S  S57  1  0.703100  0.384500  0.819890  1
  S  S58  1  0.296900  -0.384500  0.180110  1
  S  S59  1  0.296900  0.884500  -0.319890  1
  S  S60  1  0.703100  0.115500  0.319890  1
