# generated using pymatgen
data_H5C9S
_symmetry_space_group_name_H-M   'P 1'
_cell_length_a   9.35580000
_cell_length_b   10.15540000
_cell_length_c   11.47770000
_cell_angle_alpha   109.42400000
_cell_angle_beta   95.10200000
_cell_angle_gamma   91.03200000
_symmetry_Int_Tables_number   1
_chemical_formula_structural   H5C9S
_chemical_formula_sum   'H10 C18 S2'
_cell_volume   1023.05949884
_cell_formula_units_Z   2
loop_
 _symmetry_equiv_pos_site_id
 _symmetry_equiv_pos_as_xyz
  1  'x, y, z'
loop_
 _atom_site_type_symbol
 _atom_site_label
 _atom_site_symmetry_multiplicity
 _atom_site_fract_x
 _atom_site_fract_y
 _atom_site_fract_z
 _atom_site_occupancy
  C  C1  1  0.149600  0.598700  0.625500  1
  C  C2  1  0.191200  0.497100  0.681900  1
  C  C3  1  0.235000  0.631900  0.548000  1
  C  C4  1  0.080400  0.482200  0.754300  1
  C  C5  1  0.319000  0.435200  0.661700  1
  C  C6  1  -0.033900  0.562200  0.757600  1
  C  C7  1  0.366900  0.567100  0.523300  1
  C  C8  1  0.410100  0.466500  0.581400  1
  C  C9  1  0.458400  0.598400  0.442900  1
  C  C10  1  0.541600  0.401600  0.557100  1
  C  C11  1  0.589900  0.533500  0.418600  1
  C  C12  1  0.633100  0.432900  0.476700  1
  C  C13  1  0.681000  0.564800  0.338300  1
  C  C14  1  0.765000  0.368100  0.452000  1
  C  C15  1  0.808800  0.502900  0.318100  1
  C  C16  1  0.850400  0.401300  0.374500  1
  C  C17  1  0.919600  0.517800  0.245700  1
  C  C18  1  1.033900  0.437800  0.242400  1
  H  H19  1  0.198055  0.709762  0.506050  1
  H  H20  1  0.083080  0.409535  0.807210  1
  H  H21  1  0.348339  0.360694  0.709745  1
  H  H22  1  -0.114680  0.545612  0.816029  1
  H  H23  1  0.426460  0.675215  0.398105  1
  H  H24  1  0.573540  0.324785  0.601895  1
  H  H25  1  0.651661  0.639306  0.290255  1
  H  H26  1  0.801945  0.290238  0.493950  1
  H  H27  1  0.916920  0.590465  0.192790  1
  H  H28  1  1.114680  0.454388  0.183971  1
  S  S29  1  -0.017150  0.669110  0.666110  1
  S  S30  1  1.017150  0.330890  0.333890  1
