# generated using pymatgen
data_H(C6O)2
_symmetry_space_group_name_H-M   'P 1'
_cell_length_a   18.58360000
_cell_length_b   18.29490000
_cell_length_c   14.63670000
_cell_angle_alpha   90.00000000
_cell_angle_beta   110.88800000
_cell_angle_gamma   90.00000000
_symmetry_Int_Tables_number   1
_chemical_formula_structural   H(C6O)2
_chemical_formula_sum   'H8 C96 O16'
_cell_volume   4649.21602550
_cell_formula_units_Z   8
loop_
 _symmetry_equiv_pos_site_id
 _symmetry_equiv_pos_as_xyz
  1  'x, y, z'
loop_
 _atom_site_type_symbol
 _atom_site_label
 _atom_site_symmetry_multiplicity
 _atom_site_fract_x
 _atom_site_fract_y
 _atom_site_fract_z
 _atom_site_occupancy
  C  C1  1  0.423200  0.054000  0.624300  1
  C  C2  1  0.500300  0.065600  0.627100  1
  C  C3  1  0.395400  -0.014700  0.622700  1
  C  C4  1  0.547900  0.010400  0.627900  1
  C  C5  1  0.440600  0.176400  0.620400  1
  C  C6  1  0.443300  -0.075500  0.623600  1
  C  C7  1  0.524000  -0.062500  0.626200  1
  C  C8  1  0.418800  -0.145300  0.624500  1
  C  C9  1  0.568000  -0.122000  0.629300  1
  C  C10  1  0.466300  -0.207500  0.627300  1
  C  C11  1  0.543300  -0.195000  0.627800  1
  C  C12  1  0.439000  -0.280000  0.624100  1
  C  C13  1  0.591500  -0.254800  0.630700  1
  C  C14  1  0.488800  -0.340100  0.626700  1
  C  C15  1  0.564200  -0.328100  0.632200  1
  C  C16  1  0.461300  -0.412300  0.623300  1
  C  C17  1  0.613700  -0.388200  0.636700  1
  C  C18  1  0.509200  -0.473200  0.626800  1
  C  C19  1  0.586500  -0.458200  0.634100  1
  C  C20  1  0.479200  -0.544000  0.621100  1
  C  C21  1  0.636700  -0.520000  0.636200  1
  C  C22  1  0.529900  -0.602800  0.624000  1
  C  C23  1  0.607500  -0.587300  0.631300  1
  C  C24  1  0.586000  -0.711600  0.628800  1
  C  C25  1  0.576800  -0.446000  0.875700  1
  C  C26  1  0.499700  -0.434400  0.872900  1
  C  C27  1  0.604600  -0.514700  0.877300  1
  C  C28  1  0.452100  -0.489600  0.872100  1
  C  C29  1  0.559400  -0.323600  0.879600  1
  C  C30  1  0.556700  -0.575500  0.876400  1
  C  C31  1  0.476000  -0.562500  0.873800  1
  C  C32  1  0.581200  -0.645300  0.875500  1
  C  C33  1  0.432000  -0.622000  0.870700  1
  C  C34  1  0.533700  -0.707500  0.872700  1
  C  C35  1  0.456700  -0.695000  0.872200  1
  C  C36  1  0.561000  -0.780000  0.875900  1
  C  C37  1  0.408500  -0.754800  0.869300  1
  C  C38  1  0.511200  -0.840100  0.873300  1
  C  C39  1  0.435800  -0.828100  0.867800  1
  C  C40  1  0.538700  -0.912300  0.876700  1
  C  C41  1  0.386300  -0.888200  0.863300  1
  C  C42  1  0.490800  -0.973200  0.873200  1
  C  C43  1  0.413500  -0.958200  0.865900  1
  C  C44  1  0.520800  -1.044000  0.878900  1
  C  C45  1  0.363300  -1.020000  0.863800  1
  C  C46  1  0.470100  -1.102800  0.876000  1
  C  C47  1  0.392500  -1.087300  0.868700  1
  C  C48  1  0.414000  -1.211600  0.871200  1
  C  C49  1  0.576800  -1.054000  0.375700  1
  C  C50  1  0.499700  -1.065600  0.372900  1
  C  C51  1  0.604600  -0.985300  0.377300  1
  C  C52  1  0.452100  -1.010400  0.372100  1
  C  C53  1  0.559400  -1.176400  0.379600  1
  C  C54  1  0.556700  -0.924500  0.376400  1
  C  C55  1  0.476000  -0.937500  0.373800  1
  C  C56  1  0.581200  -0.854700  0.375500  1
  C  C57  1  0.432000  -0.878000  0.370700  1
  C  C58  1  0.533700  -0.792500  0.372700  1
  C  C59  1  0.456700  -0.805000  0.372200  1
  C  C60  1  0.561000  -0.720000  0.375900  1
  C  C61  1  0.408500  -0.745200  0.369300  1
  C  C62  1  0.511200  -0.659900  0.373300  1
  C  C63  1  0.435800  -0.671900  0.367800  1
  C  C64  1  0.538700  -0.587700  0.376700  1
  C  C65  1  0.386300  -0.611800  0.363300  1
  C  C66  1  0.490800  -0.526800  0.373200  1
  C  C67  1  0.413500  -0.541800  0.365900  1
  C  C68  1  0.520800  -0.456000  0.378900  1
  C  C69  1  0.363300  -0.480000  0.363800  1
  C  C70  1  0.470100  -0.397200  0.376000  1
  C  C71  1  0.392500  -0.412700  0.368700  1
  C  C72  1  0.414000  -0.288400  0.371200  1
  C  C73  1  0.423200  -0.554000  0.124300  1
  C  C74  1  0.500300  -0.565600  0.127100  1
  C  C75  1  0.395400  -0.485300  0.122700  1
  C  C76  1  0.547900  -0.510400  0.127900  1
  C  C77  1  0.440600  -0.676400  0.120400  1
  C  C78  1  0.443300  -0.424500  0.123600  1
  C  C79  1  0.524000  -0.437500  0.126200  1
  C  C80  1  0.418800  -0.354700  0.124500  1
  C  C81  1  0.568000  -0.378000  0.129300  1
  C  C82  1  0.466300  -0.292500  0.127300  1
  C  C83  1  0.543300  -0.305000  0.127800  1
  C  C84  1  0.439000  -0.220000  0.124100  1
  C  C85  1  0.591500  -0.245200  0.130700  1
  C  C86  1  0.488800  -0.159900  0.126700  1
  C  C87  1  0.564200  -0.171900  0.132200  1
  C  C88  1  0.461300  -0.087700  0.123300  1
  C  C89  1  0.613700  -0.111800  0.136700  1
  C  C90  1  0.509200  -0.026800  0.126800  1
  C  C91  1  0.586500  -0.041800  0.134100  1
  C  C92  1  0.479200  0.044000  0.121100  1
  C  C93  1  0.636700  0.020000  0.136200  1
  C  C94  1  0.529900  0.102800  0.124000  1
  C  C95  1  0.607500  0.087300  0.131300  1
  C  C96  1  0.586000  0.211600  0.128800  1
  H  H97  1  0.379399  -0.289586  0.619616  1
  H  H98  1  0.650086  -0.244324  0.631786  1
  H  H99  1  0.620601  -0.789586  0.880384  1
  H  H100  1  0.349914  -0.744324  0.868214  1
  H  H101  1  0.620601  -0.710414  0.380384  1
  H  H102  1  0.349914  -0.755676  0.368214  1
  H  H103  1  0.379399  -0.210414  0.119616  1
  H  H104  1  0.650086  -0.255676  0.131786  1
  O  O105  1  0.388300  0.118000  0.624300  1
  O  O106  1  0.511400  0.138000  0.629400  1
  O  O107  1  0.516100  -0.673100  0.619100  1
  O  O108  1  0.642000  -0.653000  0.631800  1
  O  O109  1  0.611700  -0.382000  0.875700  1
  O  O110  1  0.488600  -0.362000  0.870600  1
  O  O111  1  0.483900  -1.173100  0.880900  1
  O  O112  1  0.358000  -1.153000  0.868200  1
  O  O113  1  0.611700  -1.118000  0.375700  1
  O  O114  1  0.488600  -1.138000  0.370600  1
  O  O115  1  0.483900  -0.326900  0.380900  1
  O  O116  1  0.358000  -0.347000  0.368200  1
  O  O117  1  0.388300  -0.618000  0.124300  1
  O  O118  1  0.511400  -0.638000  0.129400  1
  O  O119  1  0.516100  0.173100  0.119100  1
  O  O120  1  0.642000  0.153000  0.131800  1
