# generated using pymatgen
data_H7C11
_symmetry_space_group_name_H-M   'P 1'
_cell_length_a   25.67770000
_cell_length_b   7.35900000
_cell_length_c   22.10350000
_cell_angle_alpha   90.00000000
_cell_angle_beta   97.97570000
_cell_angle_gamma   90.00000000
_symmetry_Int_Tables_number   1
_chemical_formula_structural   H7C11
_chemical_formula_sum   'H56 C88'
_cell_volume   4136.32441366
_cell_formula_units_Z   8
loop_
 _symmetry_equiv_pos_site_id
 _symmetry_equiv_pos_as_xyz
  1  'x, y, z'
loop_
 _atom_site_type_symbol
 _atom_site_label
 _atom_site_symmetry_multiplicity
 _atom_site_fract_x
 _atom_site_fract_y
 _atom_site_fract_z
 _atom_site_occupancy
  C  C1  1  0.209310  0.773300  0.036900  1
  C  C2  1  0.241320  0.616600  0.044490  1
  C  C3  1  0.217580  0.907900  -0.006770  1
  C  C4  1  0.282420  0.592100  0.006770  1
  C  C5  1  0.234150  0.482700  0.088380  1
  C  C6  1  0.258680  0.883400  -0.044490  1
  C  C7  1  0.186680  1.066300  -0.014270  1
  C  C8  1  0.290690  0.726700  -0.036900  1
  C  C9  1  0.313320  0.433700  0.014270  1
  C  C10  1  0.264590  0.326200  0.094710  1
  C  C11  1  0.265850  1.017300  -0.088380  1
  C  C12  1  0.194860  1.199100  -0.056420  1
  C  C13  1  0.305140  0.300900  0.056420  1
  C  C14  1  0.257110  0.188000  0.138070  1
  C  C15  1  0.235410  1.173800  -0.094710  1
  C  C16  1  0.164280  1.361200  -0.062860  1
  C  C17  1  0.335720  0.138800  0.062860  1
  C  C18  1  0.286760  0.034200  0.142780  1
  C  C19  1  0.242890  1.312000  -0.138070  1
  C  C20  1  0.172760  1.491300  -0.104350  1
  C  C21  1  0.327240  0.008700  0.104350  1
  C  C22  1  0.213240  1.465800  -0.142780  1
  C  C23  1  0.790690  0.773300  0.463100  1
  C  C24  1  0.758680  0.616600  0.455510  1
  C  C25  1  0.782420  0.907900  0.506770  1
  C  C26  1  0.717580  0.592100  0.493230  1
  C  C27  1  0.765850  0.482700  0.411620  1
  C  C28  1  0.741320  0.883400  0.544490  1
  C  C29  1  0.813320  1.066300  0.514270  1
  C  C30  1  0.709310  0.726700  0.536900  1
  C  C31  1  0.686680  0.433700  0.485730  1
  C  C32  1  0.735410  0.326200  0.405290  1
  C  C33  1  0.734150  1.017300  0.588380  1
  C  C34  1  0.805140  1.199100  0.556420  1
  C  C35  1  0.694860  0.300900  0.443580  1
  C  C36  1  0.742890  0.188000  0.361930  1
  C  C37  1  0.764590  1.173800  0.594710  1
  C  C38  1  0.835720  1.361200  0.562860  1
  C  C39  1  0.664280  0.138800  0.437140  1
  C  C40  1  0.713240  0.034200  0.357220  1
  C  C41  1  0.757110  1.312000  0.638070  1
  C  C42  1  0.827240  1.491300  0.604350  1
  C  C43  1  0.672760  0.008700  0.395650  1
  C  C44  1  0.786760  1.465800  0.642780  1
  C  C45  1  0.709310  0.273300  0.036900  1
  C  C46  1  0.741320  0.116600  0.044490  1
  C  C47  1  0.717580  0.407900  -0.006770  1
  C  C48  1  0.782420  0.092100  0.006770  1
  C  C49  1  0.734150  -0.017300  0.088380  1
  C  C50  1  0.758680  0.383400  -0.044490  1
  C  C51  1  0.686680  0.566300  -0.014270  1
  C  C52  1  0.790690  0.226700  -0.036900  1
  C  C53  1  0.813320  -0.066300  0.014270  1
  C  C54  1  0.764590  -0.173800  0.094710  1
  C  C55  1  0.765850  0.517300  -0.088380  1
  C  C56  1  0.694860  0.699100  -0.056420  1
  C  C57  1  0.805140  -0.199100  0.056420  1
  C  C58  1  0.757110  -0.312000  0.138070  1
  C  C59  1  0.735410  0.673800  -0.094710  1
  C  C60  1  0.664280  0.861200  -0.062860  1
  C  C61  1  0.835720  -0.361200  0.062860  1
  C  C62  1  0.786760  -0.465800  0.142780  1
  C  C63  1  0.742890  0.812000  -0.138070  1
  C  C64  1  0.672760  0.991300  -0.104350  1
  C  C65  1  0.827240  -0.491300  0.104350  1
  C  C66  1  0.713240  0.965800  -0.142780  1
  C  C67  1  0.290690  0.273300  -0.536900  1
  C  C68  1  0.258680  0.116600  -0.544490  1
  C  C69  1  0.282420  0.407900  -0.493230  1
  C  C70  1  0.217580  0.092100  -0.506770  1
  C  C71  1  0.265850  -0.017300  -0.588380  1
  C  C72  1  0.241320  0.383400  -0.455510  1
  C  C73  1  0.313320  0.566300  -0.485730  1
  C  C74  1  0.209310  0.226700  -0.463100  1
  C  C75  1  0.186680  -0.066300  -0.514270  1
  C  C76  1  0.235410  -0.173800  -0.594710  1
  C  C77  1  0.234150  0.517300  -0.411620  1
  C  C78  1  0.305140  0.699100  -0.443580  1
  C  C79  1  0.194860  -0.199100  -0.556420  1
  C  C80  1  0.242890  -0.312000  -0.638070  1
  C  C81  1  0.264590  0.673800  -0.405290  1
  C  C82  1  0.335720  0.861200  -0.437140  1
  C  C83  1  0.164280  -0.361200  -0.562860  1
  C  C84  1  0.213240  -0.465800  -0.642780  1
  C  C85  1  0.257110  0.812000  -0.361930  1
  C  C86  1  0.327240  0.991300  -0.395650  1
  C  C87  1  0.172760  -0.491300  -0.604350  1
  C  C88  1  0.286760  0.965800  -0.357220  1
  H  H89  1  0.177670  0.790659  0.065240  1
  H  H90  1  0.203913  0.500869  0.118577  1
  H  H91  1  0.155009  1.087047  0.013811  1
  H  H92  1  0.322330  0.709341  -0.065240  1
  H  H93  1  0.344991  0.412953  -0.013811  1
  H  H94  1  0.296087  0.999131  -0.118577  1
  H  H95  1  0.227307  0.200522  0.169093  1
  H  H96  1  0.132921  1.386891  -0.034720  1
  H  H97  1  0.367079  0.113109  0.034720  1
  H  H98  1  0.278232  -0.066824  0.176749  1
  H  H99  1  0.272693  1.299478  -0.169093  1
  H  H100  1  0.147716  1.613077  -0.106745  1
  H  H101  1  0.352284  -0.113077  0.106745  1
  H  H102  1  0.221768  1.566824  -0.176749  1
  H  H103  1  0.822330  0.790659  0.434760  1
  H  H104  1  0.796087  0.500869  0.381423  1
  H  H105  1  0.844991  1.087047  0.486189  1
  H  H106  1  0.677670  0.709341  0.565240  1
  H  H107  1  0.655009  0.412953  0.513811  1
  H  H108  1  0.703913  0.999131  0.618577  1
  H  H109  1  0.772693  0.200522  0.330907  1
  H  H110  1  0.867079  1.386891  0.534720  1
  H  H111  1  0.632921  0.113109  0.465280  1
  H  H112  1  0.721768  -0.066824  0.323251  1
  H  H113  1  0.727307  1.299478  0.669093  1
  H  H114  1  0.852284  1.613077  0.606745  1
  H  H115  1  0.647716  -0.113077  0.393255  1
  H  H116  1  0.778232  1.566824  0.676749  1
  H  H117  1  0.677670  0.290659  0.065240  1
  H  H118  1  0.703913  0.000869  0.118577  1
  H  H119  1  0.655009  0.587047  0.013811  1
  H  H120  1  0.822330  0.209341  -0.065240  1
  H  H121  1  0.844991  -0.087047  -0.013811  1
  H  H122  1  0.796087  0.499131  -0.118577  1
  H  H123  1  0.727307  -0.299478  0.169093  1
  H  H124  1  0.632921  0.886891  -0.034720  1
  H  H125  1  0.867079  -0.386891  0.034720  1
  H  H126  1  0.778232  -0.566824  0.176749  1
  H  H127  1  0.772693  0.799478  -0.169093  1
  H  H128  1  0.647716  1.113077  -0.106745  1
  H  H129  1  0.852284  -0.613077  0.106745  1
  H  H130  1  0.721768  1.066824  -0.176749  1
  H  H131  1  0.322330  0.290659  -0.565240  1
  H  H132  1  0.296087  0.000869  -0.618577  1
  H  H133  1  0.344991  0.587047  -0.513811  1
  H  H134  1  0.177670  0.209341  -0.434760  1
  H  H135  1  0.155009  -0.087047  -0.486189  1
  H  H136  1  0.203913  0.499131  -0.381423  1
  H  H137  1  0.272693  -0.299478  -0.669093  1
  H  H138  1  0.367079  0.886891  -0.465280  1
  H  H139  1  0.132921  -0.386891  -0.534720  1
  H  H140  1  0.221768  -0.566824  -0.676749  1
  H  H141  1  0.227307  0.799478  -0.330907  1
  H  H142  1  0.352284  1.113077  -0.393255  1
  H  H143  1  0.147716  -0.613077  -0.606745  1
  H  H144  1  0.278232  1.066824  -0.323251  1
