# generated using pymatgen
data_H5C9S
_symmetry_space_group_name_H-M   'P 1'
_cell_length_a   7.36780000
_cell_length_b   10.37300000
_cell_length_c   12.11590000
_cell_angle_alpha   66.39500000
_cell_angle_beta   87.51800000
_cell_angle_gamma   76.87800000
_symmetry_Int_Tables_number   1
_chemical_formula_structural   H5C9S
_chemical_formula_sum   'H10 C18 S2'
_cell_volume   825.16236828
_cell_formula_units_Z   2
loop_
 _symmetry_equiv_pos_site_id
 _symmetry_equiv_pos_as_xyz
  1  'x, y, z'
loop_
 _atom_site_type_symbol
 _atom_site_label
 _atom_site_symmetry_multiplicity
 _atom_site_fract_x
 _atom_site_fract_y
 _atom_site_fract_z
 _atom_site_occupancy
  C  C1  1  0.070000  0.597250  0.310150  1
  C  C2  1  0.080600  0.447390  0.382740  1
  C  C3  1  0.202500  0.662450  0.324640  1
  C  C4  1  -0.073300  0.402200  0.353400  1
  C  C5  1  0.222500  0.368050  0.466850  1
  C  C6  1  -0.184200  0.510400  0.263200  1
  C  C7  1  0.352500  0.582480  0.410850  1
  C  C8  1  0.362400  0.432350  0.484070  1
  C  C9  1  0.490300  0.647140  0.428220  1
  C  C10  1  0.509700  0.352860  0.571780  1
  C  C11  1  0.637600  0.567650  0.515930  1
  C  C12  1  0.647500  0.417520  0.589150  1
  C  C13  1  0.777500  0.631950  0.533150  1
  C  C14  1  0.797500  0.337550  0.675360  1
  C  C15  1  0.919400  0.552610  0.617260  1
  C  C16  1  0.930000  0.402750  0.689850  1
  C  C17  1  1.073300  0.597800  0.646600  1
  C  C18  1  1.184200  0.489600  0.736800  1
  H  H19  1  0.188582  0.777908  0.267599  1
  H  H20  1  -0.103551  0.294288  0.396216  1
  H  H21  1  0.224096  0.253454  0.520215  1
  H  H22  1  -0.299574  0.472543  0.240566  1
  H  H23  1  0.482727  0.762050  0.372148  1
  H  H24  1  0.517273  0.237950  0.627852  1
  H  H25  1  0.775904  0.746546  0.479785  1
  H  H26  1  0.811418  0.222092  0.732401  1
  H  H27  1  1.103551  0.705712  0.603784  1
  H  H28  1  1.299574  0.527457  0.759434  1
  S  S29  1  -0.122300  0.675300  0.206900  1
  S  S30  1  1.122300  0.324700  0.793100  1
