# generated using pymatgen
data_H2C3
_symmetry_space_group_name_H-M   'P 1'
_cell_length_a   7.58360000
_cell_length_b   14.21170000
_cell_length_c   17.67470000
_cell_angle_alpha   70.72000000
_cell_angle_beta   81.72560000
_cell_angle_gamma   83.17500000
_symmetry_Int_Tables_number   1
_chemical_formula_structural   H2C3
_chemical_formula_sum   'H24 C36'
_cell_volume   1774.16000240
_cell_formula_units_Z   12
loop_
 _symmetry_equiv_pos_site_id
 _symmetry_equiv_pos_as_xyz
  1  'x, y, z'
loop_
 _atom_site_type_symbol
 _atom_site_label
 _atom_site_symmetry_multiplicity
 _atom_site_fract_x
 _atom_site_fract_y
 _atom_site_fract_z
 _atom_site_occupancy
  C  C1  1  0.619530  0.674390  0.581130  1
  C  C2  1  0.667880  0.775040  0.550250  1
  C  C3  1  0.685500  0.605630  0.540210  1
  C  C4  1  0.778160  0.807730  0.474470  1
  C  C5  1  0.609220  0.843850  0.592280  1
  C  C6  1  0.792490  0.638820  0.463520  1
  C  C7  1  0.649170  0.502890  0.572840  1
  C  C8  1  0.836140  0.738880  0.431040  1
  C  C9  1  0.825110  0.907190  0.444390  1
  C  C10  1  0.657790  0.941560  0.562330  1
  C  C11  1  0.852250  0.567470  0.422270  1
  C  C12  1  0.712410  0.436920  0.532630  1
  C  C13  1  0.768340  0.974070  0.486720  1
  C  C14  1  0.599480  1.012580  0.603650  1
  C  C15  1  0.813540  0.470550  0.455380  1
  C  C16  1  0.815770  1.074820  0.457740  1
  C  C17  1  0.648180  1.107380  0.573840  1
  C  C18  1  0.759070  1.138960  0.499770  1
  C  C19  1  0.380470  1.325610  0.418870  1
  C  C20  1  0.332120  1.224960  0.449750  1
  C  C21  1  0.314500  1.394370  0.459790  1
  C  C22  1  0.221840  1.192270  0.525530  1
  C  C23  1  0.390780  1.156150  0.407720  1
  C  C24  1  0.207510  1.361180  0.536480  1
  C  C25  1  0.350830  1.497110  0.427160  1
  C  C26  1  0.163860  1.261120  0.568960  1
  C  C27  1  0.174890  1.092810  0.555610  1
  C  C28  1  0.342210  1.058440  0.437670  1
  C  C29  1  0.147750  1.432530  0.577730  1
  C  C30  1  0.287590  1.563080  0.467370  1
  C  C31  1  0.231660  1.025930  0.513280  1
  C  C32  1  0.400520  0.987420  0.396350  1
  C  C33  1  0.186460  1.529450  0.544620  1
  C  C34  1  0.184230  0.925180  0.542260  1
  C  C35  1  0.351820  0.892620  0.426160  1
  C  C36  1  0.240930  0.861040  0.500230  1
  H  H37  1  0.529808  0.649362  0.637481  1
  H  H38  1  0.523310  0.820696  0.649949  1
  H  H39  1  0.569085  0.473316  0.631426  1
  H  H40  1  0.915558  0.763269  0.371721  1
  H  H41  1  0.908397  0.933352  0.386245  1
  H  H42  1  0.931171  0.587964  0.362672  1
  H  H43  1  0.682527  0.358368  0.561842  1
  H  H44  1  0.512803  0.993318  0.661264  1
  H  H45  1  0.863383  0.420012  0.420134  1
  H  H46  1  0.899968  1.104422  0.400322  1
  H  H47  1  0.598536  1.157846  0.609171  1
  H  H48  1  0.802346  1.215402  0.474183  1
  H  H49  1  0.470192  1.350638  0.362519  1
  H  H50  1  0.476690  1.179304  0.350051  1
  H  H51  1  0.430915  1.526684  0.368574  1
  H  H52  1  0.084442  1.236731  0.628279  1
  H  H53  1  0.091603  1.066648  0.613755  1
  H  H54  1  0.068829  1.412036  0.637328  1
  H  H55  1  0.317473  1.641632  0.438158  1
  H  H56  1  0.487197  1.006682  0.338736  1
  H  H57  1  0.136617  1.579988  0.579866  1
  H  H58  1  0.100032  0.895578  0.599678  1
  H  H59  1  0.401464  0.842154  0.390829  1
  H  H60  1  0.197654  0.784598  0.525817  1
