# generated using pymatgen
data_H5C9S
_symmetry_space_group_name_H-M   'P 1'
_cell_length_a   7.41550000
_cell_length_b   11.22950000
_cell_length_c   12.00440000
_cell_angle_alpha   73.61030000
_cell_angle_beta   76.79600000
_cell_angle_gamma   74.42490000
_symmetry_Int_Tables_number   1
_chemical_formula_structural   H5C9S
_chemical_formula_sum   'H10 C18 S2'
_cell_volume   911.10757427
_cell_formula_units_Z   2
loop_
 _symmetry_equiv_pos_site_id
 _symmetry_equiv_pos_as_xyz
  1  'x, y, z'
loop_
 _atom_site_type_symbol
 _atom_site_label
 _atom_site_symmetry_multiplicity
 _atom_site_fract_x
 _atom_site_fract_y
 _atom_site_fract_z
 _atom_site_occupancy
  C  C1  1  0.871000  0.933700  0.325700  1
  C  C2  1  0.810000  1.069600  0.298500  1
  C  C3  1  0.945100  0.869500  0.242010  1
  C  C4  1  0.734400  1.117800  0.402000  1
  C  C5  1  0.830200  1.137300  0.177650  1
  C  C6  1  0.728000  1.027900  0.503100  1
  C  C7  1  0.972600  0.933200  0.120820  1
  C  C8  1  0.914000  1.069770  0.088380  1
  C  C9  1  1.057500  0.866330  0.032130  1
  C  C10  1  0.942500  1.133670  -0.032130  1
  C  C11  1  1.086000  0.930230  -0.088380  1
  C  C12  1  1.027400  1.066800  -0.120820  1
  C  C13  1  1.169800  0.862700  -0.177650  1
  C  C14  1  1.054900  1.130500  -0.242010  1
  C  C15  1  1.190000  0.930400  -0.298500  1
  C  C16  1  1.129000  1.066300  -0.325700  1
  C  C17  1  1.265600  0.882200  -0.402000  1
  C  C18  1  1.272000  0.972100  -0.503100  1
  H  H19  1  0.983049  0.765344  0.272548  1
  H  H20  1  0.683768  1.218844  0.403756  1
  H  H21  1  0.781271  1.241336  0.153355  1
  H  H22  1  0.665406  1.067600  0.580802  1
  H  H23  1  1.102463  0.762079  0.057497  1
  H  H24  1  0.897537  1.237921  -0.057497  1
  H  H25  1  1.218729  0.758664  -0.153355  1
  H  H26  1  1.016951  1.234656  -0.272548  1
  H  H27  1  1.316232  0.781156  -0.403756  1
  H  H28  1  1.334594  0.932400  -0.580802  1
  S  S29  1  0.822650  0.873910  0.478760  1
  S  S30  1  1.177350  1.126090  -0.478760  1
