# generated using pymatgen
data_H6C9N
_symmetry_space_group_name_H-M   'P 1'
_cell_length_a   15.63260000
_cell_length_b   6.42030000
_cell_length_c   14.87830000
_cell_angle_alpha   90.00000000
_cell_angle_beta   100.51580000
_cell_angle_gamma   90.00000000
_symmetry_Int_Tables_number   1
_chemical_formula_structural   H6C9N
_chemical_formula_sum   'H24 C36 N4'
_cell_volume   1468.19505735
_cell_formula_units_Z   4
loop_
 _symmetry_equiv_pos_site_id
 _symmetry_equiv_pos_as_xyz
  1  'x, y, z'
loop_
 _atom_site_type_symbol
 _atom_site_label
 _atom_site_symmetry_multiplicity
 _atom_site_fract_x
 _atom_site_fract_y
 _atom_site_fract_z
 _atom_site_occupancy
  C  C1  1  0.499120  0.681200  0.449970  1
  C  C2  1  0.579710  0.580500  0.486250  1
  C  C3  1  0.418530  0.603700  0.461810  1
  C  C4  1  0.647240  0.698700  0.459950  1
  C  C5  1  0.581470  0.396300  0.538190  1
  C  C6  1  0.610820  0.867700  0.410810  1
  C  C7  1  0.466380  1.016500  0.363460  1
  C  C8  1  0.420290  0.419500  0.513750  1
  C  C9  1  0.500880  0.318800  0.550030  1
  C  C10  1  0.644220  1.037300  0.367430  1
  C  C11  1  0.500220  1.175700  0.322910  1
  C  C12  1  0.352760  0.301300  0.540050  1
  C  C13  1  0.591300  1.185700  0.324520  1
  C  C14  1  0.389180  0.132300  0.589190  1
  C  C15  1  0.533620  -0.016500  0.636540  1
  C  C16  1  0.355780  -0.037300  0.632570  1
  C  C17  1  0.499780  -0.175700  0.677090  1
  C  C18  1  0.408700  -0.185700  0.675480  1
  C  C19  1  0.500880  0.181200  0.050030  1
  C  C20  1  0.420290  0.080500  0.013750  1
  C  C21  1  0.581470  0.103700  0.038190  1
  C  C22  1  0.352760  0.198700  0.040050  1
  C  C23  1  0.418530  -0.103700  -0.038190  1
  C  C24  1  0.389180  0.367700  0.089190  1
  C  C25  1  0.533620  0.516500  0.136540  1
  C  C26  1  0.579710  -0.080500  -0.013750  1
  C  C27  1  0.499120  -0.181200  -0.050030  1
  C  C28  1  0.355780  0.537300  0.132570  1
  C  C29  1  0.499780  0.675700  0.177090  1
  C  C30  1  0.647240  -0.198700  -0.040050  1
  C  C31  1  0.408700  0.685700  0.175480  1
  C  C32  1  0.610820  -0.367700  -0.089190  1
  C  C33  1  0.466380  -0.516500  -0.136540  1
  C  C34  1  0.644220  -0.537300  -0.132570  1
  C  C35  1  0.500220  -0.675700  -0.177090  1
  C  C36  1  0.591300  -0.685700  -0.175480  1
  H  H37  1  0.357487  0.682792  0.432086  1
  H  H38  1  0.717337  0.664444  0.475352  1
  H  H39  1  0.642513  0.317208  0.567914  1
  H  H40  1  0.395865  1.014316  0.362538  1
  H  H41  1  0.714164  1.054478  0.367049  1
  H  H42  1  0.454623  1.294551  0.289326  1
  H  H43  1  0.282663  0.335556  0.524648  1
  H  H44  1  0.621741  1.312058  0.291574  1
  H  H45  1  0.604135  -0.014316  0.637462  1
  H  H46  1  0.285836  -0.054478  0.632951  1
  H  H47  1  0.545377  -0.294551  0.710674  1
  H  H48  1  0.378259  -0.312058  0.708426  1
  H  H49  1  0.642513  0.182792  0.067914  1
  H  H50  1  0.282663  0.164444  0.024648  1
  H  H51  1  0.357487  -0.182792  -0.067914  1
  H  H52  1  0.604135  0.514316  0.137462  1
  H  H53  1  0.285836  0.554478  0.132951  1
  H  H54  1  0.545377  0.794551  0.210674  1
  H  H55  1  0.717337  -0.164444  -0.024648  1
  H  H56  1  0.378259  0.812058  0.208426  1
  H  H57  1  0.395865  -0.514316  -0.137462  1
  H  H58  1  0.714164  -0.554478  -0.132951  1
  H  H59  1  0.454623  -0.794551  -0.210674  1
  H  H60  1  0.621741  -0.812058  -0.208426  1
  N  N61  1  0.519700  0.860000  0.405150  1
  N  N62  1  0.480300  0.140000  0.594850  1
  N  N63  1  0.480300  0.360000  0.094850  1
  N  N64  1  0.519700  -0.360000  -0.094850  1
