# generated using pymatgen
data_H5C9S
_symmetry_space_group_name_H-M   'P 1'
_cell_length_a   20.62060000
_cell_length_b   18.68120000
_cell_length_c   24.27360000
_cell_angle_alpha   90.00000000
_cell_angle_beta   100.43300000
_cell_angle_gamma   90.00000000
_symmetry_Int_Tables_number   1
_chemical_formula_structural   H5C9S
_chemical_formula_sum   'H80 C144 S16'
_cell_volume   9196.02618325
_cell_formula_units_Z   16
loop_
 _symmetry_equiv_pos_site_id
 _symmetry_equiv_pos_as_xyz
  1  'x, y, z'
loop_
 _atom_site_type_symbol
 _atom_site_label
 _atom_site_symmetry_multiplicity
 _atom_site_fract_x
 _atom_site_fract_y
 _atom_site_fract_z
 _atom_site_occupancy
  C  C1  1  0.845720  0.324600  0.429390  1
  C  C2  1  0.817030  0.356120  0.473160  1
  C  C3  1  0.809210  0.284570  0.388040  1
  C  C4  1  0.867400  0.390600  0.513100  1
  C  C5  1  0.750150  0.347900  0.473170  1
  C  C6  1  0.928270  0.389010  0.498980  1
  C  C7  1  0.741170  0.274090  0.387700  1
  C  C8  1  0.711040  0.307040  0.430570  1
  C  C9  1  0.702450  0.230720  0.346460  1
  C  C10  1  0.642850  0.297190  0.429830  1
  C  C11  1  0.634210  0.222250  0.345480  1
  C  C12  1  0.603770  0.255370  0.388370  1
  C  C13  1  0.595160  0.181010  0.302820  1
  C  C14  1  0.535740  0.245320  0.386560  1
  C  C15  1  0.529060  0.174550  0.302150  1
  C  C16  1  0.498190  0.206170  0.344740  1
  C  C17  1  0.429900  0.190400  0.332700  1
  C  C18  1  0.408050  0.153420  0.286310  1
  C  C19  1  0.845720  0.675400  -0.070610  1
  C  C20  1  0.817030  0.643880  -0.026840  1
  C  C21  1  0.809210  0.715430  -0.111960  1
  C  C22  1  0.867400  0.609400  0.013100  1
  C  C23  1  0.750150  0.652100  -0.026830  1
  C  C24  1  0.928270  0.610990  -0.001020  1
  C  C25  1  0.741170  0.725910  -0.112300  1
  C  C26  1  0.711040  0.692960  -0.069430  1
  C  C27  1  0.702450  0.769280  -0.153540  1
  C  C28  1  0.642850  0.702810  -0.070170  1
  C  C29  1  0.634210  0.777750  -0.154520  1
  C  C30  1  0.603770  0.744630  -0.111630  1
  C  C31  1  0.595160  0.818990  -0.197180  1
  C  C32  1  0.535740  0.754680  -0.113440  1
  C  C33  1  0.529060  0.825450  -0.197850  1
  C  C34  1  0.498190  0.793830  -0.155260  1
  C  C35  1  0.429900  0.809600  -0.167300  1
  C  C36  1  0.408050  0.846580  -0.213690  1
  C  C37  1  1.345720  -0.175400  0.429390  1
  C  C38  1  1.317030  -0.143880  0.473160  1
  C  C39  1  1.309210  -0.215430  0.388040  1
  C  C40  1  1.367400  -0.109400  0.513100  1
  C  C41  1  1.250150  -0.152100  0.473170  1
  C  C42  1  1.428270  -0.110990  0.498980  1
  C  C43  1  1.241170  -0.225910  0.387700  1
  C  C44  1  1.211040  -0.192960  0.430570  1
  C  C45  1  1.202450  -0.269280  0.346460  1
  C  C46  1  1.142850  -0.202810  0.429830  1
  C  C47  1  1.134210  -0.277750  0.345480  1
  C  C48  1  1.103770  -0.244630  0.388370  1
  C  C49  1  1.095160  -0.318990  0.302820  1
  C  C50  1  1.035740  -0.254680  0.386560  1
  C  C51  1  1.029060  -0.325450  0.302150  1
  C  C52  1  0.998190  -0.293830  0.344740  1
  C  C53  1  0.929900  -0.309600  0.332700  1
  C  C54  1  0.908050  -0.346580  0.286310  1
  C  C55  1  1.345720  0.175400  0.929390  1
  C  C56  1  1.317030  0.143880  0.973160  1
  C  C57  1  1.309210  0.215430  0.888040  1
  C  C58  1  1.367400  0.109400  1.013100  1
  C  C59  1  1.250150  0.152100  0.973170  1
  C  C60  1  1.428270  0.110990  0.998980  1
  C  C61  1  1.241170  0.225910  0.887700  1
  C  C62  1  1.211040  0.192960  0.930570  1
  C  C63  1  1.202450  0.269280  0.846460  1
  C  C64  1  1.142850  0.202810  0.929830  1
  C  C65  1  1.134210  0.277750  0.845480  1
  C  C66  1  1.103770  0.244630  0.888370  1
  C  C67  1  1.095160  0.318990  0.802820  1
  C  C68  1  1.035740  0.254680  0.886560  1
  C  C69  1  1.029060  0.325450  0.802150  1
  C  C70  1  0.998190  0.293830  0.844740  1
  C  C71  1  0.929900  0.309600  0.832700  1
  C  C72  1  0.908050  0.346580  0.786310  1
  C  C73  1  0.008420  -0.088900  0.325320  1
  C  C74  1  0.037160  -0.123120  0.283150  1
  C  C75  1  0.044920  -0.048180  0.366660  1
  C  C76  1  -0.013200  -0.161500  0.244400  1
  C  C77  1  0.103300  -0.115270  0.283200  1
  C  C78  1  -0.074930  -0.153450  0.257790  1
  C  C79  1  0.113240  -0.039010  0.367200  1
  C  C80  1  0.143380  -0.073720  0.325140  1
  C  C81  1  0.152320  0.004340  0.408180  1
  C  C82  1  0.211240  -0.064470  0.325430  1
  C  C83  1  0.220260  0.013930  0.408740  1
  C  C84  1  0.250750  -0.021480  0.367080  1
  C  C85  1  0.259910  0.057500  0.449630  1
  C  C86  1  0.318900  -0.012200  0.368090  1
  C  C87  1  0.326370  0.064250  0.450210  1
  C  C88  1  0.356160  0.028370  0.408760  1
  C  C89  1  0.425300  0.044400  0.420430  1
  C  C90  1  0.446580  0.084930  0.465110  1
  C  C91  1  1.008420  0.088900  0.825320  1
  C  C92  1  1.037160  0.123120  0.783150  1
  C  C93  1  1.044920  0.048180  0.866660  1
  C  C94  1  0.986800  0.161500  0.744400  1
  C  C95  1  1.103300  0.115270  0.783200  1
  C  C96  1  0.925070  0.153450  0.757790  1
  C  C97  1  1.113240  0.039010  0.867200  1
  C  C98  1  1.143380  0.073720  0.825140  1
  C  C99  1  1.152320  -0.004340  0.908180  1
  C  C100  1  1.211240  0.064470  0.825430  1
  C  C101  1  1.220260  -0.013930  0.908740  1
  C  C102  1  1.250750  0.021480  0.867080  1
  C  C103  1  1.259910  -0.057500  0.949630  1
  C  C104  1  1.318900  0.012200  0.868090  1
  C  C105  1  1.326370  -0.064250  0.950210  1
  C  C106  1  1.356160  -0.028370  0.908760  1
  C  C107  1  1.425300  -0.044400  0.920430  1
  C  C108  1  1.446580  -0.084930  0.965110  1
  C  C109  1  0.508420  0.411100  0.325320  1
  C  C110  1  0.537160  0.376880  0.283150  1
  C  C111  1  0.544920  0.451820  0.366660  1
  C  C112  1  0.486800  0.338500  0.244400  1
  C  C113  1  0.603300  0.384730  0.283200  1
  C  C114  1  0.425070  0.346550  0.257790  1
  C  C115  1  0.613240  0.460990  0.367200  1
  C  C116  1  0.643380  0.426280  0.325140  1
  C  C117  1  0.652320  0.504340  0.408180  1
  C  C118  1  0.711240  0.435530  0.325430  1
  C  C119  1  0.720260  0.513930  0.408740  1
  C  C120  1  0.750750  0.478520  0.367080  1
  C  C121  1  0.759910  0.557500  0.449630  1
  C  C122  1  0.818900  0.487800  0.368090  1
  C  C123  1  0.826370  0.564250  0.450210  1
  C  C124  1  0.856160  0.528370  0.408760  1
  C  C125  1  0.925300  0.544400  0.420430  1
  C  C126  1  0.946580  0.584930  0.465110  1
  C  C127  1  0.508420  0.588900  0.825320  1
  C  C128  1  0.537160  0.623120  0.783150  1
  C  C129  1  0.544920  0.548180  0.866660  1
  C  C130  1  0.486800  0.661500  0.744400  1
  C  C131  1  0.603300  0.615270  0.783200  1
  C  C132  1  0.425070  0.653450  0.757790  1
  C  C133  1  0.613240  0.539010  0.867200  1
  C  C134  1  0.643380  0.573720  0.825140  1
  C  C135  1  0.652320  0.495660  0.908180  1
  C  C136  1  0.711240  0.564470  0.825430  1
  C  C137  1  0.720260  0.486070  0.908740  1
  C  C138  1  0.750750  0.521480  0.867080  1
  C  C139  1  0.759910  0.442500  0.949630  1
  C  C140  1  0.818900  0.512200  0.868090  1
  C  C141  1  0.826370  0.435750  0.950210  1
  C  C142  1  0.856160  0.471630  0.908760  1
  C  C143  1  0.925300  0.455600  0.920430  1
  C  C144  1  0.946580  0.415070  0.965110  1
  H  H145  1  0.834029  0.261309  0.355758  1
  H  H146  1  0.859826  0.416617  0.552093  1
  H  H147  1  0.728463  0.373390  0.506446  1
  H  H148  1  0.965840  0.416897  0.529412  1
  H  H149  1  0.725608  0.203341  0.314876  1
  H  H150  1  0.619674  0.322643  0.462250  1
  H  H151  1  0.616316  0.153808  0.269979  1
  H  H152  1  0.511122  0.268824  0.418875  1
  H  H153  1  0.394295  0.206662  0.359036  1
  H  H154  1  0.354376  0.145048  0.279178  1
  H  H155  1  0.834029  0.738691  -0.144242  1
  H  H156  1  0.859826  0.583383  0.052093  1
  H  H157  1  0.728463  0.626610  0.006446  1
  H  H158  1  0.965840  0.583103  0.029412  1
  H  H159  1  0.725608  0.796659  -0.185124  1
  H  H160  1  0.619674  0.677357  -0.037750  1
  H  H161  1  0.616316  0.846192  -0.230021  1
  H  H162  1  0.511122  0.731176  -0.081125  1
  H  H163  1  0.394295  0.793338  -0.140964  1
  H  H164  1  0.354376  0.854952  -0.220822  1
  H  H165  1  1.334029  -0.238691  0.355758  1
  H  H166  1  1.359826  -0.083383  0.552093  1
  H  H167  1  1.228463  -0.126610  0.506446  1
  H  H168  1  1.465840  -0.083103  0.529412  1
  H  H169  1  1.225608  -0.296659  0.314876  1
  H  H170  1  1.119674  -0.177357  0.462250  1
  H  H171  1  1.116316  -0.346192  0.269979  1
  H  H172  1  1.011122  -0.231176  0.418875  1
  H  H173  1  0.894295  -0.293338  0.359036  1
  H  H174  1  0.854376  -0.354952  0.279178  1
  H  H175  1  1.334029  0.238691  0.855758  1
  H  H176  1  1.359826  0.083383  1.052093  1
  H  H177  1  1.228463  0.126610  1.006446  1
  H  H178  1  1.465840  0.083103  1.029412  1
  H  H179  1  1.225608  0.296659  0.814876  1
  H  H180  1  1.119674  0.177357  0.962250  1
  H  H181  1  1.116316  0.346192  0.769979  1
  H  H182  1  1.011122  0.231176  0.918875  1
  H  H183  1  0.894295  0.293338  0.859036  1
  H  H184  1  0.854376  0.354952  0.779178  1
  H  H185  1  0.020133  -0.023603  0.398442  1
  H  H186  1  -0.005316  -0.193695  0.208246  1
  H  H187  1  0.124004  -0.142044  0.249919  1
  H  H188  1  -0.113670  -0.179224  0.227080  1
  H  H189  1  0.129445  0.031099  0.440218  1
  H  H190  1  0.233518  -0.090983  0.292929  1
  H  H191  1  0.238693  0.086638  0.481530  1
  H  H192  1  0.343575  -0.037195  0.336409  1
  H  H193  1  0.461527  0.025855  0.395444  1
  H  H194  1  0.500312  0.092883  0.472411  1
  H  H195  1  1.020133  0.023603  0.898442  1
  H  H196  1  0.994684  0.193695  0.708246  1
  H  H197  1  1.124004  0.142044  0.749919  1
  H  H198  1  0.886330  0.179224  0.727080  1
  H  H199  1  1.129445  -0.031099  0.940218  1
  H  H200  1  1.233518  0.090983  0.792929  1
  H  H201  1  1.238693  -0.086638  0.981530  1
  H  H202  1  1.343575  0.037195  0.836409  1
  H  H203  1  1.461527  -0.025855  0.895444  1
  H  H204  1  1.500312  -0.092883  0.972411  1
  H  H205  1  0.520133  0.476397  0.398442  1
  H  H206  1  0.494684  0.306305  0.208246  1
  H  H207  1  0.624004  0.357956  0.249919  1
  H  H208  1  0.386330  0.320776  0.227080  1
  H  H209  1  0.629445  0.531099  0.440218  1
  H  H210  1  0.733518  0.409017  0.292929  1
  H  H211  1  0.738693  0.586638  0.481530  1
  H  H212  1  0.843575  0.462805  0.336409  1
  H  H213  1  0.961527  0.525855  0.395444  1
  H  H214  1  1.000312  0.592883  0.472411  1
  H  H215  1  0.520133  0.523603  0.898442  1
  H  H216  1  0.494684  0.693695  0.708246  1
  H  H217  1  0.624004  0.642044  0.749919  1
  H  H218  1  0.386330  0.679224  0.727080  1
  H  H219  1  0.629445  0.468901  0.940218  1
  H  H220  1  0.733518  0.590983  0.792929  1
  H  H221  1  0.738693  0.413362  0.981530  1
  H  H222  1  0.843575  0.537195  0.836409  1
  H  H223  1  0.961527  0.474145  0.895444  1
  H  H224  1  1.000312  0.407117  0.972411  1
  S  S225  1  0.929350  0.343040  0.436430  1
  S  S226  1  0.472300  0.129870  0.251360  1
  S  S227  1  0.929350  0.656960  -0.063570  1
  S  S228  1  0.472300  0.870130  -0.248640  1
  S  S229  1  1.429350  -0.156960  0.436430  1
  S  S230  1  0.972300  -0.370130  0.251360  1
  S  S231  1  1.429350  0.156960  0.936430  1
  S  S232  1  0.972300  0.370130  0.751360  1
  S  S233  1  -0.075920  -0.104990  0.319330  1
  S  S234  1  0.382190  0.112780  0.498150  1
  S  S235  1  0.924080  0.104990  0.819330  1
  S  S236  1  1.382190  -0.112780  0.998150  1
  S  S237  1  0.424080  0.395010  0.319330  1
  S  S238  1  0.882190  0.612780  0.498150  1
  S  S239  1  0.424080  0.604990  0.819330  1
  S  S240  1  0.882190  0.387220  0.998150  1
