# generated using pymatgen
data_H3C11
_symmetry_space_group_name_H-M   'P 1'
_cell_length_a   10.08100000
_cell_length_b   17.67000000
_cell_length_c   19.58800000
_cell_angle_alpha   94.58000000
_cell_angle_beta   93.11000000
_cell_angle_gamma   105.28000000
_symmetry_Int_Tables_number   1
_chemical_formula_structural   H3C11
_chemical_formula_sum   'H18 C66'
_cell_volume   3344.83866116
_cell_formula_units_Z   6
loop_
 _symmetry_equiv_pos_site_id
 _symmetry_equiv_pos_as_xyz
  1  'x, y, z'
loop_
 _atom_site_type_symbol
 _atom_site_label
 _atom_site_symmetry_multiplicity
 _atom_site_fract_x
 _atom_site_fract_y
 _atom_site_fract_z
 _atom_site_occupancy
  C  C1  1  0.690000  0.424400  0.551900  1
  C  C2  1  0.720300  0.475900  0.620000  1
  C  C3  1  0.707300  0.454700  0.492600  1
  C  C4  1  0.746800  0.556300  0.613700  1
  C  C5  1  0.700400  0.437600  0.679500  1
  C  C6  1  0.748000  0.540300  0.490200  1
  C  C7  1  0.692700  0.404800  0.428600  1
  C  C8  1  0.759400  0.590000  0.552800  1
  C  C9  1  0.777900  0.613200  0.673600  1
  C  C10  1  0.731500  0.491200  0.744800  1
  C  C11  1  0.766100  0.580100  0.424800  1
  C  C12  1  0.711800  0.437200  0.367500  1
  C  C13  1  0.764800  0.573900  0.738000  1
  C  C14  1  0.717900  0.462400  0.809000  1
  C  C15  1  0.745700  0.522500  0.359300  1
  C  C16  1  0.699900  0.391700  0.300700  1
  C  C17  1  0.804700  0.633100  0.804000  1
  C  C18  1  0.739600  0.514000  0.868700  1
  C  C19  1  0.779800  0.553100  0.299200  1
  C  C20  1  0.714500  0.418900  0.248000  1
  C  C21  1  0.780000  0.591200  0.867800  1
  C  C22  1  0.746900  0.503500  0.241000  1
  C  C23  1  0.382100  0.435300  0.860400  1
  C  C24  1  0.390200  0.472500  0.803300  1
  C  C25  1  0.410200  0.487300  0.927900  1
  C  C26  1  0.427100  0.552900  0.800400  1
  C  C27  1  0.357000  0.418800  0.739100  1
  C  C28  1  0.452500  0.572500  0.928400  1
  C  C29  1  0.398300  0.454400  0.991800  1
  C  C30  1  0.452100  0.602700  0.858200  1
  C  C31  1  0.432500  0.586700  0.736000  1
  C  C32  1  0.367000  0.451900  0.677000  1
  C  C33  1  0.478000  0.617100  0.988300  1
  C  C34  1  0.421900  0.498800  1.055600  1
  C  C35  1  0.408300  0.535000  0.673800  1
  C  C36  1  0.337600  0.399500  0.607600  1
  C  C37  1  0.463300  0.587200  1.054600  1
  C  C38  1  0.411400  0.463900  1.114300  1
  C  C39  1  0.421500  0.563100  0.605200  1
  C  C40  1  0.357000  0.430900  0.551200  1
  C  C41  1  0.492700  0.636200  1.112500  1
  C  C42  1  0.432300  0.516500  1.178800  1
  C  C43  1  0.395500  0.515600  0.548300  1
  C  C44  1  0.480500  0.602300  1.178100  1
  C  C45  1  1.148900  0.611200  0.169800  1
  C  C46  1  1.134200  0.563400  0.110200  1
  C  C47  1  1.126300  0.577800  0.236000  1
  C  C48  1  1.084700  0.472700  0.108100  1
  C  C49  1  1.129300  0.588900  0.041800  1
  C  C50  1  1.094400  0.497800  0.238000  1
  C  C51  1  1.152600  0.627400  0.298300  1
  C  C52  1  1.071900  0.442000  0.177900  1
  C  C53  1  1.059200  0.427300  0.043700  1
  C  C54  1  1.106200  0.539500  -0.013800  1
  C  C55  1  1.067000  0.466200  0.300600  1
  C  C56  1  1.130000  0.595200  0.363700  1
  C  C57  1  1.069600  0.454900  -0.018400  1
  C  C58  1  1.118400  0.575900  -0.083800  1
  C  C59  1  1.082700  0.512700  0.356800  1
  C  C60  1  1.150100  0.647600  0.420200  1
  C  C61  1  1.042300  0.410000  -0.078400  1
  C  C62  1  1.078000  0.525800  -0.142300  1
  C  C63  1  1.069100  0.475600  0.424900  1
  C  C64  1  1.123600  0.611700  0.489200  1
  C  C65  1  1.042100  0.437000  -0.138700  1
  C  C66  1  1.070800  0.525300  0.484800  1
  H  H67  1  0.652358  0.359712  0.544941  1
  H  H68  1  0.777908  0.654314  0.554111  1
  H  H69  1  0.723889  0.492493  0.919612  1
  H  H70  1  0.699039  0.369044  0.208306  1
  H  H71  1  0.793107  0.620669  0.920310  1
  H  H72  1  0.746524  0.529814  0.191981  1
  H  H73  1  0.355823  0.370552  0.852851  1
  H  H74  1  0.471257  0.664998  0.848544  1
  H  H75  1  0.341105  0.386544  0.506678  1
  H  H76  1  0.411693  0.491440  1.228015  1
  H  H77  1  0.405435  0.545167  0.500770  1
  H  H78  1  0.507338  0.640991  1.226483  1
  H  H79  1  1.178153  0.674881  0.164624  1
  H  H80  1  1.046105  0.378790  0.184988  1
  H  H81  1  1.074578  0.555228  -0.189522  1
  H  H82  1  1.141672  0.646400  0.539635  1
  H  H83  1  1.014772  0.390216  -0.181623  1
  H  H84  1  1.029641  0.495739  0.529503  1
