# generated using pymatgen
data_H7C11
_symmetry_space_group_name_H-M   'P 1'
_cell_length_a   7.04290000
_cell_length_b   8.06890000
_cell_length_c   15.72720000
_cell_angle_alpha   88.86200000
_cell_angle_beta   79.31300000
_cell_angle_gamma   89.51900000
_symmetry_Int_Tables_number   1
_chemical_formula_structural   H7C11
_chemical_formula_sum   'H14 C22'
_cell_volume   878.06693691
_cell_formula_units_Z   2
loop_
 _symmetry_equiv_pos_site_id
 _symmetry_equiv_pos_as_xyz
  1  'x, y, z'
loop_
 _atom_site_type_symbol
 _atom_site_label
 _atom_site_symmetry_multiplicity
 _atom_site_fract_x
 _atom_site_fract_y
 _atom_site_fract_z
 _atom_site_occupancy
  C  C1  1  0.059000  0.062370  0.914310  1
  C  C2  1  -0.124300  0.107460  0.961720  1
  C  C3  1  0.183400  -0.044880  0.950790  1
  C  C4  1  -0.183400  0.044880  1.049210  1
  C  C5  1  -0.251700  0.210510  0.925900  1
  C  C6  1  0.124300  -0.107460  1.038280  1
  C  C7  1  0.365600  -0.091960  0.904590  1
  C  C8  1  -0.059000  -0.062370  1.085690  1
  C  C9  1  -0.365600  0.091960  1.095410  1
  C  C10  1  -0.432900  0.252040  0.971540  1
  C  C11  1  0.251700  -0.210510  1.074100  1
  C  C12  1  0.490400  -0.192430  0.940600  1
  C  C13  1  -0.490400  0.192430  1.059400  1
  C  C14  1  -0.564900  0.353120  0.934570  1
  C  C15  1  0.432900  -0.252040  1.028460  1
  C  C16  1  0.677300  -0.238500  0.894090  1
  C  C17  1  -0.677300  0.238500  1.105910  1
  C  C18  1  -0.741300  0.392100  0.980990  1
  C  C19  1  0.564900  -0.353120  1.065430  1
  C  C20  1  0.797600  -0.334500  0.931920  1
  C  C21  1  -0.797600  0.334500  1.068080  1
  C  C22  1  0.741300  -0.392100  1.019010  1
  H  H23  1  0.105534  0.111479  0.848033  1
  H  H24  1  -0.207943  0.260546  0.859646  1
  H  H25  1  0.412562  -0.048279  0.837329  1
  H  H26  1  -0.105534  -0.111479  1.151967  1
  H  H27  1  -0.412562  0.048279  1.162671  1
  H  H28  1  0.207943  -0.260546  1.140354  1
  H  H29  1  -0.529405  0.402765  0.867905  1
  H  H30  1  0.730547  -0.198580  0.826659  1
  H  H31  1  -0.730547  0.198580  1.173341  1
  H  H32  1  -0.837100  0.469139  0.948549  1
  H  H33  1  0.529405  -0.402765  1.132095  1
  H  H34  1  0.938946  -0.365234  0.892494  1
  H  H35  1  -0.938946  0.365234  1.107506  1
  H  H36  1  0.837100  -0.469139  1.051451  1
