# generated using pymatgen
data_H7C11
_symmetry_space_group_name_H-M   'P 1'
_cell_length_a   6.93990000
_cell_length_b   10.32280000
_cell_length_c   11.50660000
_cell_angle_alpha   81.86000000
_cell_angle_beta   89.82490000
_cell_angle_gamma   82.12710000
_symmetry_Int_Tables_number   1
_chemical_formula_structural   H7C11
_chemical_formula_sum   'H14 C22'
_cell_volume   808.21488608
_cell_formula_units_Z   2
loop_
 _symmetry_equiv_pos_site_id
 _symmetry_equiv_pos_as_xyz
  1  'x, y, z'
loop_
 _atom_site_type_symbol
 _atom_site_label
 _atom_site_symmetry_multiplicity
 _atom_site_fract_x
 _atom_site_fract_y
 _atom_site_fract_z
 _atom_site_occupancy
  C  C1  1  0.453900  0.570830  0.596550  1
  C  C2  1  0.615600  0.597510  0.525520  1
  C  C3  1  0.337800  0.474630  0.572140  1
  C  C4  1  0.662200  0.525370  0.427860  1
  C  C5  1  0.732700  0.692720  0.547920  1
  C  C6  1  0.384400  0.402490  0.474480  1
  C  C7  1  0.175100  0.448150  0.640430  1
  C  C8  1  0.546100  0.429170  0.403450  1
  C  C9  1  0.824900  0.551850  0.359570  1
  C  C10  1  0.894200  0.716420  0.480460  1
  C  C11  1  0.267300  0.307280  0.452080  1
  C  C12  1  0.058300  0.356370  0.616000  1
  C  C13  1  0.941700  0.643630  0.384000  1
  C  C14  1  1.017400  0.810060  0.504770  1
  C  C15  1  0.105800  0.283580  0.519540  1
  C  C16  1  -0.109400  0.331760  0.684450  1
  C  C17  1  1.109400  0.668240  0.315550  1
  C  C18  1  1.177300  0.829370  0.437700  1
  C  C19  1  -0.017400  0.189940  0.495230  1
  C  C20  1  -0.223600  0.242200  0.658400  1
  C  C21  1  1.223600  0.757800  0.341600  1
  C  C22  1  -0.177300  0.170630  0.562300  1
  H  H23  1  0.418253  0.625176  0.671159  1
  H  H24  1  0.696897  0.750384  0.620381  1
  H  H25  1  0.137847  0.501149  0.715684  1
  H  H26  1  0.581747  0.374824  0.328841  1
  H  H27  1  0.862153  0.498851  0.284316  1
  H  H28  1  0.303103  0.249616  0.379619  1
  H  H29  1  0.988360  0.868876  0.577078  1
  H  H30  1  -0.152032  0.383516  0.759753  1
  H  H31  1  1.152032  0.616484  0.240247  1
  H  H32  1  1.267808  0.901777  0.460829  1
  H  H33  1  0.011640  0.131124  0.422922  1
  H  H34  1  -0.350564  0.227969  0.713813  1
  H  H35  1  1.350564  0.772031  0.286187  1
  H  H36  1  -0.267808  0.098223  0.539171  1
