# generated using pymatgen
data_H7(C6O)2
_symmetry_space_group_name_H-M   'P 1'
_cell_length_a   8.70880000
_cell_length_b   10.88460000
_cell_length_c   13.10290000
_cell_angle_alpha   103.37330000
_cell_angle_beta   105.26050000
_cell_angle_gamma   96.81420000
_symmetry_Int_Tables_number   1
_chemical_formula_structural   H7(C6O)2
_chemical_formula_sum   'H14 C24 O4'
_cell_volume   1144.23526156
_cell_formula_units_Z   2
loop_
 _symmetry_equiv_pos_site_id
 _symmetry_equiv_pos_as_xyz
  1  'x, y, z'
loop_
 _atom_site_type_symbol
 _atom_site_label
 _atom_site_symmetry_multiplicity
 _atom_site_fract_x
 _atom_site_fract_y
 _atom_site_fract_z
 _atom_site_occupancy
  C  C1  1  0.506100  0.920600  0.758900  1
  C  C2  1  0.548900  0.836000  0.824300  1
  C  C3  1  0.386700  0.986900  0.764400  1
  C  C4  1  0.474400  0.815000  0.897800  1
  C  C5  1  0.705900  0.830000  0.712000  1
  C  C6  1  0.300300  0.968400  0.841100  1
  C  C7  1  0.344400  0.883200  0.908400  1
  C  C8  1  0.173200  1.032200  0.850400  1
  C  C9  1  0.259300  0.869100  0.982400  1
  C  C10  1  0.086200  1.017100  0.924400  1
  C  C11  1  0.130200  0.933500  0.993100  1
  C  C12  1  -0.044400  1.082400  0.932100  1
  C  C13  1  0.044400  0.917600  1.067900  1
  C  C14  1  -0.130200  1.066500  1.006900  1
  C  C15  1  -0.086200  0.982900  1.075600  1
  C  C16  1  -0.259300  1.130900  1.017600  1
  C  C17  1  -0.173200  0.967800  1.149600  1
  C  C18  1  -0.344400  1.116800  1.091600  1
  C  C19  1  -0.300300  1.031600  1.158900  1
  C  C20  1  -0.474400  1.185000  1.102200  1
  C  C21  1  -0.386700  1.013100  1.235600  1
  C  C22  1  -0.548900  1.164000  1.175700  1
  C  C23  1  -0.506100  1.079400  1.241100  1
  C  C24  1  -0.705900  1.170000  1.288000  1
  H  H25  1  0.361799  1.050889  0.710673  1
  H  H26  1  0.516257  0.747728  0.945238  1
  H  H27  1  0.610693  0.751466  0.652419  1
  H  H28  1  0.801107  0.908534  0.771581  1
  H  H29  1  0.140596  1.096352  0.797794  1
  H  H30  1  0.295345  0.804793  1.034255  1
  H  H31  1  -0.079536  1.146085  0.879474  1
  H  H32  1  0.079536  0.853915  1.120526  1
  H  H33  1  -0.295345  1.195207  0.965745  1
  H  H34  1  -0.140596  0.903648  1.202206  1
  H  H35  1  -0.516257  1.252272  1.054762  1
  H  H36  1  -0.361799  0.949111  1.289327  1
  H  H37  1  -0.610693  1.248534  1.347581  1
  H  H38  1  -0.801107  1.091466  1.228419  1
  O  O39  1  0.603300  0.920220  0.691310  1
  O  O40  1  0.676200  0.784310  0.800190  1
  O  O41  1  -0.676200  1.215690  1.199810  1
  O  O42  1  -0.603300  1.079780  1.308690  1
