# generated using pymatgen
data_H7C13S2
_symmetry_space_group_name_H-M   'P 1'
_cell_length_a   9.73900000
_cell_length_b   16.72800000
_cell_length_c   17.12060000
_cell_angle_alpha   90.00000000
_cell_angle_beta   106.43600000
_cell_angle_gamma   90.00000000
_symmetry_Int_Tables_number   1
_chemical_formula_structural   H7C13S2
_chemical_formula_sum   'H28 C52 S8'
_cell_volume   2675.20909702
_cell_formula_units_Z   4
loop_
 _symmetry_equiv_pos_site_id
 _symmetry_equiv_pos_as_xyz
  1  'x, y, z'
loop_
 _atom_site_type_symbol
 _atom_site_label
 _atom_site_symmetry_multiplicity
 _atom_site_fract_x
 _atom_site_fract_y
 _atom_site_fract_z
 _atom_site_occupancy
  C  C1  1  0.125300  0.524900  0.554760  1
  C  C2  1  0.127200  0.459230  0.502450  1
  C  C3  1  0.000500  0.566160  0.553360  1
  C  C4  1  0.269000  0.425640  0.514380  1
  C  C5  1  -0.000500  0.433840  0.446640  1
  C  C6  1  0.368100  0.467880  0.576100  1
  C  C7  1  -0.127200  0.540770  0.497550  1
  C  C8  1  -0.125300  0.475100  0.445240  1
  C  C9  1  0.519800  0.454550  0.603620  1
  C  C10  1  -0.269000  0.574360  0.485620  1
  C  C11  1  0.621400  0.491000  0.659600  1
  C  C12  1  -0.368100  0.532120  0.423900  1
  C  C13  1  0.763600  0.466000  0.670000  1
  C  C14  1  0.763300  0.402400  0.616200  1
  C  C15  1  -0.519800  0.545450  0.396380  1
  C  C16  1  0.891700  0.491700  0.725100  1
  C  C17  1  0.894200  0.365900  0.615600  1
  C  C18  1  -0.621400  0.509000  0.340400  1
  C  C19  1  1.018000  0.453900  0.723800  1
  C  C20  1  1.017400  0.392800  0.670200  1
  C  C21  1  -0.763600  0.534000  0.330000  1
  C  C22  1  -0.763300  0.597600  0.383800  1
  C  C23  1  -0.891700  0.508300  0.274900  1
  C  C24  1  -0.894200  0.634100  0.384400  1
  C  C25  1  -1.018000  0.546100  0.276200  1
  C  C26  1  -1.017400  0.607200  0.329800  1
  C  C27  1  0.374700  0.024900  0.945240  1
  C  C28  1  0.372800  -0.040770  0.997550  1
  C  C29  1  0.499500  0.066160  0.946640  1
  C  C30  1  0.231000  -0.074360  0.985620  1
  C  C31  1  0.500500  -0.066160  1.053360  1
  C  C32  1  0.131900  -0.032120  0.923900  1
  C  C33  1  0.627200  0.040770  1.002450  1
  C  C34  1  0.625300  -0.024900  1.054760  1
  C  C35  1  -0.019800  -0.045450  0.896380  1
  C  C36  1  0.769000  0.074360  1.014380  1
  C  C37  1  -0.121400  -0.009000  0.840400  1
  C  C38  1  0.868100  0.032120  1.076100  1
  C  C39  1  -0.263600  -0.034000  0.830000  1
  C  C40  1  -0.263300  -0.097600  0.883800  1
  C  C41  1  1.019800  0.045450  1.103620  1
  C  C42  1  -0.391700  -0.008300  0.774900  1
  C  C43  1  -0.394200  -0.134100  0.884400  1
  C  C44  1  1.121400  0.009000  1.159600  1
  C  C45  1  -0.518000  -0.046100  0.776200  1
  C  C46  1  -0.517400  -0.107200  0.829800  1
  C  C47  1  1.263600  0.034000  1.170000  1
  C  C48  1  1.263300  0.097600  1.116200  1
  C  C49  1  1.391700  0.008300  1.225100  1
  C  C50  1  1.394200  0.134100  1.115600  1
  C  C51  1  1.518000  0.046100  1.223800  1
  C  C52  1  1.517400  0.107200  1.170200  1
  H  H53  1  0.002703  0.616792  0.594694  1
  H  H54  1  0.297536  0.374963  0.481106  1
  H  H55  1  -0.002703  0.383208  0.405306  1
  H  H56  1  -0.297536  0.625037  0.518894  1
  H  H57  1  0.589793  0.538838  0.695083  1
  H  H58  1  0.893082  0.540468  0.768415  1
  H  H59  1  0.900096  0.317353  0.573332  1
  H  H60  1  -0.589793  0.461162  0.304917  1
  H  H61  1  1.120494  0.472719  0.766042  1
  H  H62  1  1.119588  0.364294  0.671034  1
  H  H63  1  -0.893082  0.459532  0.231585  1
  H  H64  1  -0.900096  0.682647  0.426668  1
  H  H65  1  -1.120494  0.527281  0.233958  1
  H  H66  1  -1.119588  0.635706  0.328966  1
  H  H67  1  0.497297  0.116792  0.905306  1
  H  H68  1  0.202464  -0.125037  1.018894  1
  H  H69  1  0.502703  -0.116792  1.094694  1
  H  H70  1  0.797536  0.125037  0.981106  1
  H  H71  1  -0.089793  0.038838  0.804917  1
  H  H72  1  -0.393082  0.040468  0.731585  1
  H  H73  1  -0.400096  -0.182647  0.926668  1
  H  H74  1  1.089793  -0.038838  1.195083  1
  H  H75  1  -0.620494  -0.027281  0.733958  1
  H  H76  1  -0.619588  -0.135706  0.828966  1
  H  H77  1  1.393082  -0.040468  1.268415  1
  H  H78  1  1.400096  0.182647  1.073332  1
  H  H79  1  1.620494  0.027281  1.266042  1
  H  H80  1  1.619588  0.135706  1.171034  1
  S  S81  1  0.292570  0.545390  0.619120  1
  S  S82  1  -0.292570  0.454610  0.380880  1
  S  S83  1  0.593700  0.379270  0.556330  1
  S  S84  1  -0.593700  0.620730  0.443670  1
  S  S85  1  0.207430  0.045390  0.880880  1
  S  S86  1  0.792570  -0.045390  1.119120  1
  S  S87  1  -0.093700  -0.120730  0.943670  1
  S  S88  1  1.093700  0.120730  1.056330  1
