# generated using pymatgen
data_H5C9S
_symmetry_space_group_name_H-M   'P 1'
_cell_length_a   7.57660000
_cell_length_b   8.17960000
_cell_length_c   16.15030000
_cell_angle_alpha   100.84600000
_cell_angle_beta   92.62100000
_cell_angle_gamma   98.79000000
_symmetry_Int_Tables_number   1
_chemical_formula_structural   H5C9S
_chemical_formula_sum   'H10 C18 S2'
_cell_volume   968.60197645
_cell_formula_units_Z   2
loop_
 _symmetry_equiv_pos_site_id
 _symmetry_equiv_pos_as_xyz
  1  'x, y, z'
loop_
 _atom_site_type_symbol
 _atom_site_label
 _atom_site_symmetry_multiplicity
 _atom_site_fract_x
 _atom_site_fract_y
 _atom_site_fract_z
 _atom_site_occupancy
  C  C1  1  0.238900  0.917000  0.470000  1
  C  C2  1  0.181100  0.957800  0.553500  1
  C  C3  1  0.202500  0.741100  0.420980  1
  C  C4  1  0.240600  1.132700  0.577100  1
  C  C5  1  0.091100  0.843200  0.584150  1
  C  C6  1  0.326900  1.210900  0.521300  1
  C  C7  1  0.103400  0.618800  0.459660  1
  C  C8  1  0.044300  0.671700  0.542680  1
  C  C9  1  0.060200  0.447800  0.419300  1
  C  C10  1  -0.060200  0.552200  0.580700  1
  C  C11  1  -0.044300  0.328300  0.457320  1
  C  C12  1  -0.103400  0.381200  0.540340  1
  C  C13  1  -0.091100  0.156800  0.415850  1
  C  C14  1  -0.202500  0.258900  0.579020  1
  C  C15  1  -0.181100  0.042200  0.446500  1
  C  C16  1  -0.238900  0.083000  0.530000  1
  C  C17  1  -0.240600  -0.132700  0.422900  1
  C  C18  1  -0.326900  -0.210900  0.478700  1
  H  H19  1  0.247825  0.702353  0.357583  1
  H  H20  1  0.219767  1.207869  0.638821  1
  H  H21  1  0.053027  0.893347  0.647711  1
  H  H22  1  0.363775  1.347229  0.546370  1
  H  H23  1  0.109010  0.406793  0.356889  1
  H  H24  1  -0.109010  0.593207  0.643111  1
  H  H25  1  -0.053027  0.106653  0.352289  1
  H  H26  1  -0.247825  0.297647  0.642417  1
  H  H27  1  -0.219767  -0.207869  0.361179  1
  H  H28  1  -0.363775  -0.347229  0.453630  1
  S  S29  1  0.356100  1.078000  0.426680  1
  S  S30  1  -0.356100  -0.078000  0.573320  1
