# generated using pymatgen
data_H5C9S
_symmetry_space_group_name_H-M   'P 1'
_cell_length_a   7.08380000
_cell_length_b   10.30720000
_cell_length_c   11.17580000
_cell_angle_alpha   95.74850000
_cell_angle_beta   90.01540000
_cell_angle_gamma   98.91170000
_symmetry_Int_Tables_number   1
_chemical_formula_structural   H5C9S
_chemical_formula_sum   'H10 C18 S2'
_cell_volume   801.98362210
_cell_formula_units_Z   2
loop_
 _symmetry_equiv_pos_site_id
 _symmetry_equiv_pos_as_xyz
  1  'x, y, z'
loop_
 _atom_site_type_symbol
 _atom_site_label
 _atom_site_symmetry_multiplicity
 _atom_site_fract_x
 _atom_site_fract_y
 _atom_site_fract_z
 _atom_site_occupancy
  C  C1  1  0.572000  0.149000  0.107500  1
  C  C2  1  0.621400  0.221300  0.005700  1
  C  C3  1  0.678800  0.056220  0.136960  1
  C  C4  1  0.494600  0.313300  -0.010500  1
  C  C5  1  0.784600  0.194530  -0.063860  1
  C  C6  1  0.358600  0.310800  0.073100  1
  C  C7  1  0.839200  0.027190  0.069800  1
  C  C8  1  0.893000  0.097980  -0.033500  1
  C  C9  1  0.947400  -0.069080  0.101300  1
  C  C10  1  1.052600  0.069080  -0.101300  1
  C  C11  1  1.107000  -0.097980  0.033500  1
  C  C12  1  1.160800  -0.027190  -0.069800  1
  C  C13  1  1.215400  -0.194530  0.063860  1
  C  C14  1  1.321200  -0.056220  -0.136960  1
  C  C15  1  1.378600  -0.221300  -0.005700  1
  C  C16  1  1.428000  -0.149000  -0.107500  1
  C  C17  1  1.505400  -0.313300  0.010500  1
  C  C18  1  1.641400  -0.310800  -0.073100  1
  H  H19  1  0.634939  0.004053  0.216025  1
  H  H20  1  0.501139  0.380470  -0.081437  1
  H  H21  1  0.827336  0.248948  -0.141782  1
  H  H22  1  0.261323  0.381284  0.058135  1
  H  H23  1  0.906623  -0.122526  0.180077  1
  H  H24  1  1.093377  0.122526  -0.180077  1
  H  H25  1  1.172664  -0.248948  0.141782  1
  H  H26  1  1.365061  -0.004053  -0.216025  1
  H  H27  1  1.498861  -0.380470  0.081437  1
  H  H28  1  1.738677  -0.381284  -0.058135  1
  S  S29  1  0.373600  0.198890  0.179930  1
  S  S30  1  1.626400  -0.198890  -0.179930  1
