# generated using pymatgen
data_H7C11
_symmetry_space_group_name_H-M   'P 1'
_cell_length_a   7.16910000
_cell_length_b   8.54690000
_cell_length_c   17.75630000
_cell_angle_alpha   86.66300000
_cell_angle_beta   82.53100000
_cell_angle_gamma   66.17100000
_symmetry_Int_Tables_number   1
_chemical_formula_structural   H7C11
_chemical_formula_sum   'H14 C22'
_cell_volume   986.78276034
_cell_formula_units_Z   2
loop_
 _symmetry_equiv_pos_site_id
 _symmetry_equiv_pos_as_xyz
  1  'x, y, z'
loop_
 _atom_site_type_symbol
 _atom_site_label
 _atom_site_symmetry_multiplicity
 _atom_site_fract_x
 _atom_site_fract_y
 _atom_site_fract_z
 _atom_site_occupancy
  C  C1  1  0.614300  0.440500  0.428310  1
  C  C2  1  0.604700  0.320600  0.485360  1
  C  C3  1  0.512800  0.618100  0.441940  1
  C  C4  1  0.487200  0.381900  0.558060  1
  C  C5  1  0.709500  0.143500  0.474090  1
  C  C6  1  0.395300  0.679400  0.514640  1
  C  C7  1  0.525200  0.738300  0.386070  1
  C  C8  1  0.385700  0.559500  0.571690  1
  C  C9  1  0.474800  0.261700  0.613930  1
  C  C10  1  0.702200  0.027200  0.530080  1
  C  C11  1  0.290500  0.856500  0.525910  1
  C  C12  1  0.420700  0.911700  0.398200  1
  C  C13  1  0.579300  0.088300  0.601800  1
  C  C14  1  0.810900  -0.152700  0.521180  1
  C  C15  1  0.297800  0.972800  0.469920  1
  C  C16  1  0.425800  1.035000  0.341310  1
  C  C17  1  0.574200  -0.035000  0.658690  1
  C  C18  1  0.802900  -0.264400  0.577250  1
  C  C19  1  0.189100  1.152700  0.478820  1
  C  C20  1  0.317300  1.203900  0.352380  1
  C  C21  1  0.682700  -0.203900  0.647620  1
  C  C22  1  0.197100  1.264400  0.422750  1
  H  H23  1  0.701874  0.395018  0.372597  1
  H  H24  1  0.800716  0.094027  0.419361  1
  H  H25  1  0.619489  0.695390  0.331223  1
  H  H26  1  0.298126  0.604982  0.627403  1
  H  H27  1  0.380511  0.304610  0.668777  1
  H  H28  1  0.199284  0.905973  0.580639  1
  H  H29  1  0.906478  -0.208556  0.467969  1
  H  H30  1  0.518577  0.997759  0.285807  1
  H  H31  1  0.481423  0.002241  0.714193  1
  H  H32  1  0.892170  -0.401408  0.565872  1
  H  H33  1  0.093522  1.208556  0.532031  1
  H  H34  1  0.326636  1.290397  0.305062  1
  H  H35  1  0.673364  -0.290397  0.694938  1
  H  H36  1  0.107830  1.401408  0.434128  1
