# generated using pymatgen
data_H5C9S
_symmetry_space_group_name_H-M   'P 1'
_cell_length_a   7.14190000
_cell_length_b   10.32100000
_cell_length_c   11.24000000
_cell_angle_alpha   83.80800000
_cell_angle_beta   89.24000000
_cell_angle_gamma   81.27700000
_symmetry_Int_Tables_number   1
_chemical_formula_structural   H5C9S
_chemical_formula_sum   'H10 C18 S2'
_cell_volume   814.15275677
_cell_formula_units_Z   2
loop_
 _symmetry_equiv_pos_site_id
 _symmetry_equiv_pos_as_xyz
  1  'x, y, z'
loop_
 _atom_site_type_symbol
 _atom_site_label
 _atom_site_symmetry_multiplicity
 _atom_site_fract_x
 _atom_site_fract_y
 _atom_site_fract_z
 _atom_site_occupancy
  C  C1  1  0.370700  0.217900  0.998010  1
  C  C2  1  0.509200  0.309100  1.007100  1
  C  C3  1  0.423000  0.148700  0.894900  1
  C  C4  1  0.216600  0.192000  1.064580  1
  C  C5  1  0.644400  0.311800  0.926400  1
  C  C6  1  0.321000  0.056900  0.862910  1
  C  C7  1  0.107600  0.096700  1.033580  1
  C  C8  1  0.160400  0.027700  0.929630  1
  C  C9  1  -0.051700  0.067300  1.101420  1
  C  C10  1  0.051700  -0.067300  0.898580  1
  C  C11  1  -0.160400  -0.027700  1.070370  1
  C  C12  1  -0.107600  -0.096700  0.966420  1
  C  C13  1  -0.321000  -0.056900  1.137090  1
  C  C14  1  -0.216600  -0.192000  0.935420  1
  C  C15  1  -0.423000  -0.148700  1.105100  1
  C  C16  1  -0.370700  -0.217900  1.001990  1
  C  C17  1  -0.509200  -0.309100  0.992900  1
  C  C18  1  -0.644400  -0.311800  1.073600  1
  H  H19  1  0.511729  0.376936  1.075925  1
  H  H20  1  0.180700  0.247243  1.142247  1
  H  H21  1  0.739774  0.382108  0.943346  1
  H  H22  1  0.367964  0.006731  0.783801  1
  H  H23  1  -0.092059  0.119623  1.180296  1
  H  H24  1  0.092059  -0.119623  0.819704  1
  H  H25  1  -0.367964  -0.006731  1.216199  1
  H  H26  1  -0.180700  -0.247243  0.857753  1
  H  H27  1  -0.511729  -0.376936  0.924075  1
  H  H28  1  -0.739774  -0.382108  1.056654  1
  S  S29  1  0.625500  0.200900  0.818320  1
  S  S30  1  -0.625500  -0.200900  1.181680  1
