# generated using pymatgen
data_H7C13S
_symmetry_space_group_name_H-M   'P 1'
_cell_length_a   7.92480000
_cell_length_b   8.84810000
_cell_length_c   17.76950000
_cell_angle_alpha   101.22500000
_cell_angle_beta   99.04200000
_cell_angle_gamma   97.37100000
_symmetry_Int_Tables_number   1
_chemical_formula_structural   H7C13S
_chemical_formula_sum   'H14 C26 S2'
_cell_volume   1190.61795307
_cell_formula_units_Z   2
loop_
 _symmetry_equiv_pos_site_id
 _symmetry_equiv_pos_as_xyz
  1  'x, y, z'
loop_
 _atom_site_type_symbol
 _atom_site_label
 _atom_site_symmetry_multiplicity
 _atom_site_fract_x
 _atom_site_fract_y
 _atom_site_fract_z
 _atom_site_occupancy
  C  C1  1  0.168700  0.041700  0.406110  1
  C  C2  1  0.194300  0.100100  0.489390  1
  C  C3  1  0.218500  -0.095300  0.375430  1
  C  C4  1  0.132300  0.248600  0.503800  1
  C  C5  1  0.267000  0.018100  0.539650  1
  C  C6  1  0.075000  0.293200  0.437200  1
  C  C7  1  0.296900  -0.183500  0.426150  1
  C  C8  1  0.319200  -0.126800  0.509580  1
  C  C9  1  0.352000  -0.323000  0.397730  1
  C  C10  1  0.391500  -0.214900  0.559030  1
  C  C11  1  0.426500  -0.412100  0.447240  1
  C  C12  1  0.444900  -0.357200  0.530760  1
  C  C13  1  0.482700  -0.553800  0.418060  1
  C  C14  1  0.517300  -0.446200  0.581940  1
  C  C15  1  0.555100  -0.642800  0.469240  1
  C  C16  1  0.573500  -0.587900  0.552760  1
  C  C17  1  0.608500  -0.785100  0.440970  1
  C  C18  1  0.648000  -0.677000  0.602270  1
  C  C19  1  0.680800  -0.873200  0.490420  1
  C  C20  1  0.703100  -0.816500  0.573850  1
  C  C21  1  0.733000  -1.018100  0.460350  1
  C  C22  1  0.781500  -0.904700  0.624570  1
  C  C23  1  0.805700  -1.100100  0.510610  1
  C  C24  1  0.831300  -1.041700  0.593890  1
  C  C25  1  0.867700  -1.248600  0.496200  1
  C  C26  1  0.925000  -1.293200  0.562800  1
  H  H27  1  0.196021  -0.133656  0.311451  1
  H  H28  1  0.128983  0.321930  0.560975  1
  H  H29  1  0.283073  0.067417  0.602633  1
  H  H30  1  0.041085  0.410904  0.450965  1
  H  H31  1  0.336161  -0.364149  0.334104  1
  H  H32  1  0.406917  -0.170687  0.622429  1
  H  H33  1  0.469908  -0.595412  0.354608  1
  H  H34  1  0.530092  -0.404588  0.645392  1
  H  H35  1  0.593083  -0.829313  0.377571  1
  H  H36  1  0.663839  -0.635851  0.665896  1
  H  H37  1  0.716927  -1.067417  0.397367  1
  H  H38  1  0.803979  -0.866344  0.688549  1
  H  H39  1  0.871017  -1.321930  0.439025  1
  H  H40  1  0.958915  -1.410904  0.549035  1
  S  S41  1  0.068700  0.160800  0.349900  1
  S  S42  1  0.931300  -1.160800  0.650100  1
