# generated using pymatgen
data_H7C11
_symmetry_space_group_name_H-M   'P 1'
_cell_length_a   10.61770000
_cell_length_b   13.61710000
_cell_length_c   14.08290000
_cell_angle_alpha   75.15400000
_cell_angle_beta   73.91500000
_cell_angle_gamma   71.12300000
_symmetry_Int_Tables_number   1
_chemical_formula_structural   H7C11
_chemical_formula_sum   'H28 C44'
_cell_volume   1819.86238341
_cell_formula_units_Z   4
loop_
 _symmetry_equiv_pos_site_id
 _symmetry_equiv_pos_as_xyz
  1  'x, y, z'
loop_
 _atom_site_type_symbol
 _atom_site_label
 _atom_site_symmetry_multiplicity
 _atom_site_fract_x
 _atom_site_fract_y
 _atom_site_fract_z
 _atom_site_occupancy
  C  C1  1  0.061800  0.033500  0.059300  1
  C  C2  1  0.092000  0.063900  -0.046700  1
  C  C3  1  -0.030700  -0.030100  0.107500  1
  C  C4  1  0.030700  0.030100  -0.107500  1
  C  C5  1  0.181300  0.127600  -0.095400  1
  C  C6  1  -0.092000  -0.063900  0.046700  1
  C  C7  1  -0.061600  -0.061500  0.212500  1
  C  C8  1  -0.061800  -0.033500  -0.059300  1
  C  C9  1  0.061600  0.061500  -0.212500  1
  C  C10  1  0.210800  0.158500  -0.199100  1
  C  C11  1  -0.181300  -0.127600  0.095400  1
  C  C12  1  -0.149200  -0.125100  0.259600  1
  C  C13  1  0.149200  0.125100  -0.259600  1
  C  C14  1  0.302000  0.223100  -0.249000  1
  C  C15  1  -0.210800  -0.158500  0.199100  1
  C  C16  1  -0.178900  -0.159400  0.365900  1
  C  C17  1  0.178900  0.159400  -0.365900  1
  C  C18  1  0.327000  0.253300  -0.350100  1
  C  C19  1  -0.302000  -0.223100  0.249000  1
  C  C20  1  -0.264100  -0.221100  0.409600  1
  C  C21  1  0.264100  0.221100  -0.409600  1
  C  C22  1  -0.327000  -0.253300  0.350100  1
  C  C23  1  -0.062600  -0.518600  0.431500  1
  C  C24  1  -0.088700  -0.567300  0.533900  1
  C  C25  1  0.025600  -0.451500  0.396100  1
  C  C26  1  -0.025600  -0.548500  0.603900  1
  C  C27  1  -0.175400  -0.633800  0.570400  1
  C  C28  1  0.088700  -0.432700  0.466100  1
  C  C29  1  0.054400  -0.402900  0.294900  1
  C  C30  1  0.062600  -0.481400  0.568500  1
  C  C31  1  -0.054400  -0.597100  0.705100  1
  C  C32  1  -0.203700  -0.680200  0.670500  1
  C  C33  1  0.175400  -0.366200  0.429600  1
  C  C34  1  0.142000  -0.338800  0.259300  1
  C  C35  1  -0.142000  -0.661200  0.740700  1
  C  C36  1  -0.294100  -0.747200  0.708800  1
  C  C37  1  0.203700  -0.319800  0.329500  1
  C  C38  1  0.172800  -0.290800  0.156500  1
  C  C39  1  -0.172800  -0.709200  0.843500  1
  C  C40  1  -0.319600  -0.790700  0.806200  1
  C  C41  1  0.294100  -0.252800  0.291200  1
  C  C42  1  0.258400  -0.228300  0.124300  1
  C  C43  1  -0.258400  -0.771700  0.875700  1
  C  C44  1  0.319600  -0.209300  0.193800  1
  H  H45  1  0.110441  0.059421  0.104428  1
  H  H46  1  0.229848  0.154228  -0.050749  1
  H  H47  1  -0.015690  -0.035428  0.259382  1
  H  H48  1  -0.110441  -0.059421  -0.104428  1
  H  H49  1  0.015690  0.035428  -0.259382  1
  H  H50  1  -0.229848  -0.154228  0.050749  1
  H  H51  1  0.354824  0.250549  -0.208145  1
  H  H52  1  -0.134164  -0.137314  0.416359  1
  H  H53  1  0.134164  0.137314  -0.416359  1
  H  H54  1  0.397307  0.303211  -0.383374  1
  H  H55  1  -0.354824  -0.250549  0.208145  1
  H  H56  1  -0.281890  -0.244633  0.491927  1
  H  H57  1  0.281890  0.244633  -0.491927  1
  H  H58  1  -0.397307  -0.303211  0.383374  1
  H  H59  1  -0.111385  -0.533055  0.378865  1
  H  H60  1  -0.223218  -0.650258  0.518325  1
  H  H61  1  0.006091  -0.415635  0.241004  1
  H  H62  1  0.111385  -0.466945  0.621135  1
  H  H63  1  -0.006091  -0.584365  0.758996  1
  H  H64  1  0.223218  -0.349742  0.481675  1
  H  H65  1  -0.346348  -0.766119  0.661221  1
  H  H66  1  0.128619  -0.302490  0.099581  1
  H  H67  1  -0.128619  -0.697510  0.900419  1
  H  H68  1  -0.389504  -0.841092  0.828695  1
  H  H69  1  0.346348  -0.233881  0.338779  1
  H  H70  1  0.277729  -0.193841  0.043737  1
  H  H71  1  -0.277729  -0.806159  0.956263  1
  H  H72  1  0.389504  -0.158908  0.171305  1
