# generated using pymatgen
data_H7(C5S)3
_symmetry_space_group_name_H-M   'P 1'
_cell_length_a   10.18040000
_cell_length_b   17.69780000
_cell_length_c   24.06420000
_cell_angle_alpha   94.49600000
_cell_angle_beta   101.53200000
_cell_angle_gamma   100.16600000
_symmetry_Int_Tables_number   1
_chemical_formula_structural   H7(C5S)3
_chemical_formula_sum   'H42 C90 S18'
_cell_volume   4152.29931074
_cell_formula_units_Z   6
loop_
 _symmetry_equiv_pos_site_id
 _symmetry_equiv_pos_as_xyz
  1  'x, y, z'
loop_
 _atom_site_type_symbol
 _atom_site_label
 _atom_site_symmetry_multiplicity
 _atom_site_fract_x
 _atom_site_fract_y
 _atom_site_fract_z
 _atom_site_occupancy
  C  C1  1  0.392200  0.449800  0.011100  1
  C  C2  1  0.367700  0.499700  -0.031300  1
  C  C3  1  0.513100  0.444900  0.040060  1
  C  C4  1  0.226400  0.492700  -0.053600  1
  C  C5  1  0.486900  0.555100  -0.040060  1
  C  C6  1  0.146700  0.438400  -0.031500  1
  C  C7  1  0.632300  0.500300  0.031300  1
  C  C8  1  0.607800  0.550200  -0.011100  1
  C  C9  1  -0.000900  0.415800  -0.045700  1
  C  C10  1  0.773600  0.507300  0.053600  1
  C  C11  1  -0.082800  0.364400  -0.024000  1
  C  C12  1  0.853300  0.561600  0.031500  1
  C  C13  1  -0.225800  0.357000  -0.048700  1
  C  C14  1  -0.245400  0.407600  -0.090700  1
  C  C15  1  1.000900  0.584200  0.045700  1
  C  C16  1  -0.337100  0.310000  -0.036400  1
  C  C17  1  -0.376600  0.411500  -0.121200  1
  C  C18  1  1.082800  0.635600  0.024000  1
  C  C19  1  -0.465500  0.313800  -0.066100  1
  C  C20  1  -0.487700  0.363600  -0.108400  1
  C  C21  1  1.225800  0.643000  0.048700  1
  C  C22  1  1.245400  0.592400  0.090700  1
  C  C23  1  -0.631300  0.357100  -0.133400  1
  C  C24  1  1.337100  0.690000  0.036400  1
  C  C25  1  1.376600  0.588500  0.121200  1
  C  C26  1  -0.705000  0.305300  -0.109600  1
  C  C27  1  1.465500  0.686200  0.066100  1
  C  C28  1  1.487700  0.636400  0.108400  1
  C  C29  1  1.631300  0.642900  0.133400  1
  C  C30  1  1.705000  0.694700  0.109600  1
  C  C31  1  0.014500  0.224400  -0.318600  1
  C  C32  1  0.018300  0.251000  -0.372000  1
  C  C33  1  -0.110900  0.192300  -0.307500  1
  C  C34  1  0.152900  0.282300  -0.377400  1
  C  C35  1  -0.104000  0.245200  -0.415700  1
  C  C36  1  0.248300  0.279900  -0.329390  1
  C  C37  1  -0.230600  0.186900  -0.348800  1
  C  C38  1  -0.227800  0.213100  -0.402100  1
  C  C39  1  0.394700  0.301400  -0.318800  1
  C  C40  1  -0.368500  0.155300  -0.344700  1
  C  C41  1  0.468600  0.335400  -0.352600  1
  C  C42  1  -0.461600  0.157700  -0.391700  1
  C  C43  1  0.613000  0.354900  -0.329900  1
  C  C44  1  0.644200  0.332800  -0.274500  1
  C  C45  1  -0.606300  0.130500  -0.396800  1
  C  C46  1  0.717200  0.389500  -0.354200  1
  C  C47  1  0.778400  0.348900  -0.241300  1
  C  C48  1  -0.677400  0.092800  -0.363200  1
  C  C49  1  0.849400  0.404400  -0.321900  1
  C  C50  1  0.881200  0.386600  -0.265400  1
  C  C51  1  -0.822600  0.074400  -0.385500  1
  C  C52  1  -0.856800  0.101400  -0.439100  1
  C  C53  1  1.026900  0.408200  -0.241800  1
  C  C54  1  -0.925500  0.036000  -0.362000  1
  C  C55  1  -0.992500  0.091000  -0.469800  1
  C  C56  1  1.092600  0.440100  -0.278600  1
  C  C57  1  -1.058800  0.025500  -0.392100  1
  C  C58  1  -1.093500  0.052400  -0.445500  1
  C  C59  1  -1.238900  0.033500  -0.467400  1
  C  C60  1  -1.302700  -0.003600  -0.432100  1
  C  C61  1  0.985500  0.775600  0.318600  1
  C  C62  1  0.981700  0.749000  0.372000  1
  C  C63  1  1.110900  0.807700  0.307500  1
  C  C64  1  0.847100  0.717700  0.377400  1
  C  C65  1  1.104000  0.754800  0.415700  1
  C  C66  1  0.751700  0.720100  0.329390  1
  C  C67  1  1.230600  0.813100  0.348800  1
  C  C68  1  1.227800  0.786900  0.402100  1
  C  C69  1  0.605300  0.698600  0.318800  1
  C  C70  1  1.368500  0.844700  0.344700  1
  C  C71  1  0.531400  0.664600  0.352600  1
  C  C72  1  1.461600  0.842300  0.391700  1
  C  C73  1  0.387000  0.645100  0.329900  1
  C  C74  1  0.355800  0.667200  0.274500  1
  C  C75  1  1.606300  0.869500  0.396800  1
  C  C76  1  0.282800  0.610500  0.354200  1
  C  C77  1  0.221600  0.651100  0.241300  1
  C  C78  1  1.677400  0.907200  0.363200  1
  C  C79  1  0.150600  0.595600  0.321900  1
  C  C80  1  0.118800  0.613400  0.265400  1
  C  C81  1  1.822600  0.925600  0.385500  1
  C  C82  1  1.856800  0.898600  0.439100  1
  C  C83  1  -0.026900  0.591800  0.241800  1
  C  C84  1  1.925500  0.964000  0.362000  1
  C  C85  1  1.992500  0.909000  0.469800  1
  C  C86  1  -0.092600  0.559900  0.278600  1
  C  C87  1  2.058800  0.974500  0.392100  1
  C  C88  1  2.093500  0.947600  0.445500  1
  C  C89  1  2.238900  0.966500  0.467400  1
  C  C90  1  2.302700  1.003600  0.432100  1
  H  H91  1  0.514386  0.399293  0.068589  1
  H  H92  1  0.181655  0.527058  -0.085852  1
  H  H93  1  0.485614  0.600707  -0.068589  1
  H  H94  1  0.818345  0.472942  0.085852  1
  H  H95  1  -0.038188  0.332273  0.009879  1
  H  H96  1  -0.323757  0.270362  -0.003629  1
  H  H97  1  -0.391862  0.450832  -0.154078  1
  H  H98  1  1.038188  0.667727  -0.009879  1
  H  H99  1  -0.679516  0.388347  -0.167062  1
  H  H100  1  1.323757  0.729638  0.003629  1
  H  H101  1  1.391862  0.549168  0.154078  1
  H  H102  1  -0.814192  0.300305  -0.128752  1
  H  H103  1  1.679516  0.611653  0.167062  1
  H  H104  1  1.814192  0.699695  0.128752  1
  H  H105  1  -0.115414  0.171157  -0.266006  1
  H  H106  1  0.180687  0.306188  -0.415260  1
  H  H107  1  -0.102894  0.264596  -0.457958  1
  H  H108  1  -0.400815  0.130775  -0.307841  1
  H  H109  1  0.415823  0.346255  -0.394896  1
  H  H110  1  0.695487  0.404776  -0.398090  1
  H  H111  1  0.802240  0.332501  -0.197796  1
  H  H112  1  -0.623091  0.078655  -0.322230  1
  H  H113  1  1.083355  0.400931  -0.199177  1
  H  H114  1  -0.901839  0.014285  -0.320283  1
  H  H115  1  -1.018812  0.112383  -0.511505  1
  H  H116  1  1.203233  0.455245  -0.260399  1
  H  H117  1  -1.296897  0.046436  -0.508055  1
  H  H118  1  -1.413474  -0.017224  -0.450116  1
  H  H119  1  1.115414  0.828843  0.266006  1
  H  H120  1  0.819313  0.693812  0.415260  1
  H  H121  1  1.102894  0.735404  0.457958  1
  H  H122  1  1.400815  0.869225  0.307841  1
  H  H123  1  0.584177  0.653745  0.394896  1
  H  H124  1  0.304513  0.595224  0.398090  1
  H  H125  1  0.197760  0.667499  0.197796  1
  H  H126  1  1.623091  0.921345  0.322230  1
  H  H127  1  -0.083355  0.599069  0.199177  1
  H  H128  1  1.901839  0.985715  0.320283  1
  H  H129  1  2.018812  0.887617  0.511505  1
  H  H130  1  -0.203233  0.544755  0.260399  1
  H  H131  1  2.296897  0.953564  0.508055  1
  H  H132  1  2.413474  1.017224  0.450116  1
  S  S133  1  0.240730  0.394500  0.019960  1
  S  S134  1  0.759270  0.605500  -0.019960  1
  S  S135  1  -0.092200  0.460450  -0.098630  1
  S  S136  1  1.092200  0.539550  0.098630  1
  S  S137  1  -0.620200  0.260750  -0.058000  1
  S  S138  1  1.620200  0.739250  0.058000  1
  S  S139  1  0.175300  0.238700  -0.277040  1
  S  S140  1  -0.387820  0.198810  -0.444880  1
  S  S141  1  0.497300  0.291200  -0.253430  1
  S  S142  1  -0.712200  0.147120  -0.459430  1
  S  S143  1  0.995400  0.449700  -0.342200  1
  S  S144  1  -1.203310  -0.020630  -0.370260  1
  S  S145  1  0.824700  0.761300  0.277040  1
  S  S146  1  1.387820  0.801190  0.444880  1
  S  S147  1  0.502700  0.708800  0.253430  1
  S  S148  1  1.712200  0.852880  0.459430  1
  S  S149  1  0.004600  0.550300  0.342200  1
  S  S150  1  2.203310  1.020630  0.370260  1
