# generated using pymatgen
data_H5C9S
_symmetry_space_group_name_H-M   'P 1'
_cell_length_a   7.23120000
_cell_length_b   32.88940000
_cell_length_c   7.18730000
_cell_angle_alpha   90.00000000
_cell_angle_beta   107.39800000
_cell_angle_gamma   90.00000000
_symmetry_Int_Tables_number   1
_chemical_formula_structural   H5C9S
_chemical_formula_sum   'H20 C36 S4'
_cell_volume   1631.15268139
_cell_formula_units_Z   4
loop_
 _symmetry_equiv_pos_site_id
 _symmetry_equiv_pos_as_xyz
  1  'x, y, z'
loop_
 _atom_site_type_symbol
 _atom_site_label
 _atom_site_symmetry_multiplicity
 _atom_site_fract_x
 _atom_site_fract_y
 _atom_site_fract_z
 _atom_site_occupancy
  C  C1  1  0.189500  0.444620  0.069800  1
  C  C2  1  0.213600  0.482660  -0.016600  1
  C  C3  1  0.275200  0.437530  0.263300  1
  C  C4  1  0.113000  0.483100  -0.221500  1
  C  C5  1  0.319800  0.513010  0.094900  1
  C  C6  1  0.023800  0.447330  -0.281600  1
  C  C7  1  0.388500  0.468280  0.382400  1
  C  C8  1  0.408700  0.507120  0.297600  1
  C  C9  1  0.483300  0.461830  0.582800  1
  C  C10  1  0.516700  0.538170  0.417200  1
  C  C11  1  0.591300  0.492880  0.702400  1
  C  C12  1  0.611500  0.531720  0.617600  1
  C  C13  1  0.680200  0.486990  0.905100  1
  C  C14  1  0.724800  0.562470  0.736700  1
  C  C15  1  0.786400  0.517340  1.016600  1
  C  C16  1  0.810500  0.555380  0.930200  1
  C  C17  1  0.887000  0.516900  1.221500  1
  C  C18  1  0.976200  0.552670  1.281600  1
  C  C19  1  0.810500  0.944620  0.430200  1
  C  C20  1  0.786400  0.982660  0.516600  1
  C  C21  1  0.724800  0.937530  0.236700  1
  C  C22  1  0.887000  0.983100  0.721500  1
  C  C23  1  0.680200  1.013010  0.405100  1
  C  C24  1  0.976200  0.947330  0.781600  1
  C  C25  1  0.611500  0.968280  0.117600  1
  C  C26  1  0.591300  1.007120  0.202400  1
  C  C27  1  0.516700  0.961830  -0.082800  1
  C  C28  1  0.483300  1.038170  0.082800  1
  C  C29  1  0.408700  0.992880  -0.202400  1
  C  C30  1  0.388500  1.031720  -0.117600  1
  C  C31  1  0.319800  0.986990  -0.405100  1
  C  C32  1  0.275200  1.062470  -0.236700  1
  C  C33  1  0.213600  1.017340  -0.516600  1
  C  C34  1  0.189500  1.055380  -0.430200  1
  C  C35  1  0.113000  1.016900  -0.721500  1
  C  C36  1  0.023800  1.052670  -0.781600  1
  H  H37  1  0.253394  0.407634  0.322081  1
  H  H38  1  0.105000  0.508511  -0.323117  1
  H  H39  1  0.333552  0.541817  0.022406  1
  H  H40  1  -0.046967  0.447860  -0.440008  1
  H  H41  1  0.472768  0.431909  0.647269  1
  H  H42  1  0.527232  0.568091  0.352731  1
  H  H43  1  0.666448  0.458183  0.977594  1
  H  H44  1  0.746606  0.592366  0.677919  1
  H  H45  1  0.895000  0.491489  1.323117  1
  H  H46  1  1.046967  0.552140  1.440008  1
  H  H47  1  0.746606  0.907634  0.177919  1
  H  H48  1  0.895000  1.008511  0.823117  1
  H  H49  1  0.666448  1.041817  0.477594  1
  H  H50  1  1.046967  0.947860  0.940008  1
  H  H51  1  0.527232  0.931909  -0.147269  1
  H  H52  1  0.472768  1.068091  0.147269  1
  H  H53  1  0.333552  0.958183  -0.477594  1
  H  H54  1  0.253394  1.092366  -0.177919  1
  H  H55  1  0.105000  0.991489  -0.823117  1
  H  H56  1  -0.046967  1.052140  -0.940008  1
  S  S57  1  0.042800  0.410750  -0.099500  1
  S  S58  1  0.957200  0.589250  1.099500  1
  S  S59  1  0.957200  0.910750  0.599500  1
  S  S60  1  0.042800  1.089250  -0.599500  1
