# generated using pymatgen
data_H7C11
_symmetry_space_group_name_H-M   'P 1'
_cell_length_a   7.21990000
_cell_length_b   10.71060000
_cell_length_c   12.30620000
_cell_angle_alpha   65.20440000
_cell_angle_beta   86.46420000
_cell_angle_gamma   77.57780000
_symmetry_Int_Tables_number   1
_chemical_formula_structural   H7C11
_chemical_formula_sum   'H14 C22'
_cell_volume   843.23844774
_cell_formula_units_Z   2
loop_
 _symmetry_equiv_pos_site_id
 _symmetry_equiv_pos_as_xyz
  1  'x, y, z'
loop_
 _atom_site_type_symbol
 _atom_site_label
 _atom_site_symmetry_multiplicity
 _atom_site_fract_x
 _atom_site_fract_y
 _atom_site_fract_z
 _atom_site_occupancy
  C  C1  1  0.490000  0.146180  0.429970  1
  C  C2  1  0.639500  0.067180  0.517460  1
  C  C3  1  0.351000  0.081750  0.411280  1
  C  C4  1  0.649000  -0.081750  0.588720  1
  C  C5  1  0.780900  0.129010  0.535560  1
  C  C6  1  0.360500  -0.067180  0.482540  1
  C  C7  1  0.201500  0.157430  0.326140  1
  C  C8  1  0.510000  -0.146180  0.570030  1
  C  C9  1  0.798500  -0.157430  0.673860  1
  C  C10  1  0.928600  0.052330  0.619210  1
  C  C11  1  0.219100  -0.129010  0.464440  1
  C  C12  1  0.062600  0.095660  0.308890  1
  C  C13  1  0.937400  -0.095660  0.691110  1
  C  C14  1  1.075600  0.114270  0.635700  1
  C  C15  1  0.071400  -0.052330  0.380790  1
  C  C16  1  -0.090800  0.172290  0.222540  1
  C  C17  1  1.090800  -0.172290  0.777460  1
  C  C18  1  1.219700  0.036230  0.717900  1
  C  C19  1  -0.075600  -0.114270  0.364300  1
  C  C20  1  -0.225800  0.108900  0.210000  1
  C  C21  1  1.225800  -0.108900  0.790000  1
  C  C22  1  -0.219700  -0.036230  0.282100  1
  H  H23  1  0.481728  0.259180  0.375766  1
  H  H24  1  0.775771  0.241781  0.482191  1
  H  H25  1  0.192807  0.270158  0.270461  1
  H  H26  1  0.518272  -0.259180  0.624234  1
  H  H27  1  0.807193  -0.270158  0.729539  1
  H  H28  1  0.224229  -0.241781  0.517809  1
  H  H29  1  1.077916  0.226075  0.583216  1
  H  H30  1  -0.105568  0.284670  0.163300  1
  H  H31  1  1.105568  -0.284670  0.836700  1
  H  H32  1  1.329175  0.089452  0.725912  1
  H  H33  1  -0.077916  -0.226075  0.416784  1
  H  H34  1  -0.339255  0.174625  0.141943  1
  H  H35  1  1.339255  -0.174625  0.858057  1
  H  H36  1  -0.329175  -0.089452  0.274088  1
