# generated using pymatgen
data_H7C11
_symmetry_space_group_name_H-M   'P 1'
_cell_length_a   6.13200000
_cell_length_b   14.91840000
_cell_length_c   15.48530000
_cell_angle_alpha   95.32400000
_cell_angle_beta   100.99700000
_cell_angle_gamma   100.36300000
_symmetry_Int_Tables_number   1
_chemical_formula_structural   H7C11
_chemical_formula_sum   'H28 C44'
_cell_volume   1355.99205286
_cell_formula_units_Z   4
loop_
 _symmetry_equiv_pos_site_id
 _symmetry_equiv_pos_as_xyz
  1  'x, y, z'
loop_
 _atom_site_type_symbol
 _atom_site_label
 _atom_site_symmetry_multiplicity
 _atom_site_fract_x
 _atom_site_fract_y
 _atom_site_fract_z
 _atom_site_occupancy
  C  C1  1  0.065700  0.580430  0.461920  1
  C  C2  1  -0.157600  0.528170  0.431880  1
  C  C3  1  0.224600  0.553890  0.528750  1
  C  C4  1  -0.224600  0.446110  0.471250  1
  C  C5  1  -0.317000  0.553000  0.364420  1
  C  C6  1  0.157600  0.471830  0.568120  1
  C  C7  1  0.447800  0.604980  0.558170  1
  C  C8  1  -0.065700  0.419570  0.538080  1
  C  C9  1  -0.447800  0.395020  0.441830  1
  C  C10  1  -0.535000  0.501230  0.335490  1
  C  C11  1  0.317000  0.447000  0.635580  1
  C  C12  1  0.602000  0.579620  0.624800  1
  C  C13  1  -0.602000  0.420380  0.375200  1
  C  C14  1  -0.698700  0.525790  0.267190  1
  C  C15  1  0.535000  0.498770  0.664510  1
  C  C16  1  0.829500  0.631860  0.654290  1
  C  C17  1  -0.829500  0.368140  0.345710  1
  C  C18  1  -0.911500  0.474110  0.240450  1
  C  C19  1  0.698700  0.474210  0.732810  1
  C  C20  1  0.977400  0.606360  0.719600  1
  C  C21  1  -0.977400  0.393640  0.280400  1
  C  C22  1  0.911500  0.525890  0.759550  1
  C  C23  1  0.112400  -0.072940  -0.019770  1
  C  C24  1  -0.091700  -0.065980  -0.077580  1
  C  C25  1  0.206700  -0.007000  0.056500  1
  C  C26  1  -0.206700  0.007000  -0.056500  1
  C  C27  1  -0.185100  -0.127750  -0.155860  1
  C  C28  1  0.091700  0.065980  0.077580  1
  C  C29  1  0.414000  -0.010650  0.112940  1
  C  C30  1  -0.112400  0.072940  0.019770  1
  C  C31  1  -0.414000  0.010650  -0.112940  1
  C  C32  1  -0.385700  -0.121830  -0.212150  1
  C  C33  1  0.185100  0.127750  0.155860  1
  C  C34  1  0.505900  0.051770  0.188810  1
  C  C35  1  -0.505900  -0.051770  -0.188810  1
  C  C36  1  -0.479200  -0.183020  -0.292800  1
  C  C37  1  0.385700  0.121830  0.212150  1
  C  C38  1  0.717200  0.048780  0.245330  1
  C  C39  1  -0.717200  -0.048780  -0.245330  1
  C  C40  1  -0.678400  -0.175920  -0.345920  1
  C  C41  1  0.479200  0.183020  0.292800  1
  C  C42  1  0.800100  0.108640  0.321180  1
  C  C43  1  -0.800100  -0.108640  -0.321180  1
  C  C44  1  0.678400  0.175920  0.345920  1
  H  H45  1  0.117018  0.643222  0.432604  1
  H  H46  1  -0.269628  0.614923  0.333273  1
  H  H47  1  0.503555  0.666755  0.528103  1
  H  H48  1  -0.117018  0.356778  0.567396  1
  H  H49  1  -0.503555  0.333245  0.471897  1
  H  H50  1  0.269628  0.385077  0.666727  1
  H  H51  1  -0.659362  0.586873  0.233893  1
  H  H52  1  0.892857  0.693736  0.625780  1
  H  H53  1  -0.892857  0.306264  0.374220  1
  H  H54  1  -1.027845  0.496912  0.187631  1
  H  H55  1  0.659362  0.413127  0.766107  1
  H  H56  1  1.147904  0.650198  0.739824  1
  H  H57  1  -1.147904  0.349802  0.260176  1
  H  H58  1  1.027845  0.503088  0.812369  1
  H  H59  1  0.197869  -0.129686  -0.034139  1
  H  H60  1  -0.097889  -0.182819  -0.173750  1
  H  H61  1  0.507583  -0.064229  0.097183  1
  H  H62  1  -0.197869  0.129686  0.034139  1
  H  H63  1  -0.507583  0.064229  -0.097183  1
  H  H64  1  0.097889  0.182819  0.173750  1
  H  H65  1  -0.394896  -0.237486  -0.314757  1
  H  H66  1  0.819881  -0.001481  0.229872  1
  H  H67  1  -0.819881  0.001481  -0.229872  1
  H  H68  1  -0.740043  -0.223787  -0.407850  1
  H  H69  1  0.394896  0.237486  0.314757  1
  H  H70  1  0.963372  0.102719  0.361966  1
  H  H71  1  -0.963372  -0.102719  -0.361966  1
  H  H72  1  0.740043  0.223787  0.407850  1
