# generated using pymatgen
data_H7C11
_symmetry_space_group_name_H-M   'P 1'
_cell_length_a   8.57530000
_cell_length_b   10.89510000
_cell_length_c   10.96280000
_cell_angle_alpha   67.02900000
_cell_angle_beta   87.52100000
_cell_angle_gamma   87.15500000
_symmetry_Int_Tables_number   1
_chemical_formula_structural   H7C11
_chemical_formula_sum   'H14 C22'
_cell_volume   941.54096942
_cell_formula_units_Z   2
loop_
 _symmetry_equiv_pos_site_id
 _symmetry_equiv_pos_as_xyz
  1  'x, y, z'
loop_
 _atom_site_type_symbol
 _atom_site_label
 _atom_site_symmetry_multiplicity
 _atom_site_fract_x
 _atom_site_fract_y
 _atom_site_fract_z
 _atom_site_occupancy
  C  C1  1  0.551000  0.415900  0.932600  1
  C  C2  1  0.401600  0.480500  0.908600  1
  C  C3  1  0.650500  0.433600  1.024800  1
  C  C4  1  0.349500  0.566400  0.975200  1
  C  C5  1  0.300200  0.462800  0.819000  1
  C  C6  1  0.598400  0.519500  1.091400  1
  C  C7  1  0.799300  0.370100  1.051200  1
  C  C8  1  0.449000  0.584100  1.067400  1
  C  C9  1  0.200700  0.629900  0.948800  1
  C  C10  1  0.154200  0.525600  0.793900  1
  C  C11  1  0.699800  0.537200  1.181000  1
  C  C12  1  0.897300  0.388000  1.140300  1
  C  C13  1  0.102700  0.612000  0.859700  1
  C  C14  1  0.052100  0.509600  0.701700  1
  C  C15  1  0.845800  0.474400  1.206100  1
  C  C16  1  1.048900  0.324900  1.167100  1
  C  C17  1  -0.048900  0.675100  0.832900  1
  C  C18  1  -0.090300  0.571800  0.678500  1
  C  C19  1  0.947900  0.490400  1.298300  1
  C  C20  1  1.142800  0.344200  1.254600  1
  C  C21  1  -0.142800  0.655800  0.745400  1
  C  C22  1  1.090300  0.428200  1.321500  1
  H  H23  1  0.589778  0.351944  0.879601  1
  H  H24  1  0.336339  0.397571  0.766736  1
  H  H25  1  0.840270  0.304452  1.000633  1
  H  H26  1  0.410222  0.648056  1.120399  1
  H  H27  1  0.159730  0.695548  0.999367  1
  H  H28  1  0.663661  0.602429  1.233264  1
  H  H29  1  0.084528  0.446674  0.646177  1
  H  H30  1  1.095100  0.258922  1.118497  1
  H  H31  1  -0.095100  0.741078  0.881503  1
  H  H32  1  -0.162165  0.554373  0.606475  1
  H  H33  1  0.915472  0.553326  1.353823  1
  H  H34  1  1.258527  0.293056  1.270884  1
  H  H35  1  -0.258527  0.706944  0.729116  1
  H  H36  1  1.162165  0.445627  1.393525  1
