# generated using pymatgen
data_H7C11
_symmetry_space_group_name_H-M   'P 1'
_cell_length_a   15.20320000
_cell_length_b   9.62160000
_cell_length_c   17.37660000
_cell_angle_alpha   90.00000000
_cell_angle_beta   113.24300000
_cell_angle_gamma   90.00000000
_symmetry_Int_Tables_number   1
_chemical_formula_structural   H7C11
_chemical_formula_sum   'H28 C44'
_cell_volume   2335.53690724
_cell_formula_units_Z   4
loop_
 _symmetry_equiv_pos_site_id
 _symmetry_equiv_pos_as_xyz
  1  'x, y, z'
loop_
 _atom_site_type_symbol
 _atom_site_label
 _atom_site_symmetry_multiplicity
 _atom_site_fract_x
 _atom_site_fract_y
 _atom_site_fract_z
 _atom_site_occupancy
  C  C1  1  0.479600  0.507060  0.412780  1
  C  C2  1  0.457360  0.384640  0.446230  1
  C  C3  1  0.521010  0.622680  0.464890  1
  C  C4  1  0.478990  0.377320  0.535110  1
  C  C5  1  0.413880  0.269650  0.395440  1
  C  C6  1  0.542640  0.615360  0.553770  1
  C  C7  1  0.542180  0.746290  0.432610  1
  C  C8  1  0.520400  0.492940  0.587220  1
  C  C9  1  0.457820  0.253710  0.567390  1
  C  C10  1  0.392060  0.149410  0.428220  1
  C  C11  1  0.586120  0.730350  0.604560  1
  C  C12  1  0.584380  0.858670  0.482780  1
  C  C13  1  0.415620  0.141330  0.517220  1
  C  C14  1  0.345820  0.033490  0.376910  1
  C  C15  1  0.607940  0.850590  0.571780  1
  C  C16  1  0.605830  0.983480  0.449410  1
  C  C17  1  0.394170  0.016520  0.550590  1
  C  C18  1  0.326000  -0.084020  0.411040  1
  C  C19  1  0.654180  0.966510  0.623090  1
  C  C20  1  0.648910  1.092960  0.499610  1
  C  C21  1  0.351090  -0.092960  0.500390  1
  C  C22  1  0.674000  1.084020  0.588960  1
  C  C23  1  1.020400  0.007060  1.087220  1
  C  C24  1  1.042640  -0.115360  1.053770  1
  C  C25  1  0.978990  0.122680  1.035110  1
  C  C26  1  1.021010  -0.122680  0.964890  1
  C  C27  1  1.086120  -0.230350  1.104560  1
  C  C28  1  0.957360  0.115360  0.946230  1
  C  C29  1  0.957820  0.246290  1.067390  1
  C  C30  1  0.979600  -0.007060  0.912780  1
  C  C31  1  1.042180  -0.246290  0.932610  1
  C  C32  1  1.107940  -0.350590  1.071780  1
  C  C33  1  0.913880  0.230350  0.895440  1
  C  C34  1  0.915620  0.358670  1.017220  1
  C  C35  1  1.084380  -0.358670  0.982780  1
  C  C36  1  1.154180  -0.466510  1.123090  1
  C  C37  1  0.892060  0.350590  0.928220  1
  C  C38  1  0.894170  0.483480  1.050590  1
  C  C39  1  1.105830  -0.483480  0.949410  1
  C  C40  1  1.174000  -0.584020  1.088960  1
  C  C41  1  0.845820  0.466510  0.876910  1
  C  C42  1  0.851090  0.592960  1.000390  1
  C  C43  1  1.148910  -0.592960  0.999610  1
  C  C44  1  0.826000  0.584020  0.911040  1
  H  H45  1  0.464529  0.512406  0.345514  1
  H  H46  1  0.396326  0.273905  0.327714  1
  H  H47  1  0.524962  0.755485  0.365104  1
  H  H48  1  0.535471  0.487594  0.654486  1
  H  H49  1  0.475038  0.244515  0.634896  1
  H  H50  1  0.603674  0.726095  0.672286  1
  H  H51  1  0.324709  0.034760  0.308639  1
  H  H52  1  0.588392  0.995839  0.382038  1
  H  H53  1  0.411608  0.004161  0.617962  1
  H  H54  1  0.290723  -0.169303  0.367664  1
  H  H55  1  0.675291  0.965240  0.691361  1
  H  H56  1  0.662964  1.185471  0.469026  1
  H  H57  1  0.337036  -0.185471  0.530974  1
  H  H58  1  0.709277  1.169303  0.632336  1
  H  H59  1  1.035471  0.012406  1.154486  1
  H  H60  1  1.103674  -0.226095  1.172286  1
  H  H61  1  0.975038  0.255485  1.134896  1
  H  H62  1  0.964529  -0.012406  0.845514  1
  H  H63  1  1.024962  -0.255485  0.865104  1
  H  H64  1  0.896326  0.226095  0.827714  1
  H  H65  1  1.175291  -0.465240  1.191361  1
  H  H66  1  0.911608  0.495839  1.117962  1
  H  H67  1  1.088392  -0.495839  0.882038  1
  H  H68  1  1.209277  -0.669303  1.132336  1
  H  H69  1  0.824709  0.465240  0.808639  1
  H  H70  1  0.837036  0.685471  1.030974  1
  H  H71  1  1.162964  -0.685471  0.969026  1
  H  H72  1  0.790723  0.669303  0.867664  1
