# generated using pymatgen
data_H5C9S
_symmetry_space_group_name_H-M   'P 1'
_cell_length_a   6.33690000
_cell_length_b   10.97330000
_cell_length_c   16.85100000
_cell_angle_alpha   74.66500000
_cell_angle_beta   83.63700000
_cell_angle_gamma   76.38900000
_symmetry_Int_Tables_number   1
_chemical_formula_structural   H5C9S
_chemical_formula_sum   'H10 C18 S2'
_cell_volume   1096.83042677
_cell_formula_units_Z   2
loop_
 _symmetry_equiv_pos_site_id
 _symmetry_equiv_pos_as_xyz
  1  'x, y, z'
loop_
 _atom_site_type_symbol
 _atom_site_label
 _atom_site_symmetry_multiplicity
 _atom_site_fract_x
 _atom_site_fract_y
 _atom_site_fract_z
 _atom_site_occupancy
  C  C1  1  0.973300  0.655200  0.404080  1
  C  C2  1  1.070000  0.572900  0.351000  1
  C  C3  1  1.079400  0.658600  0.469430  1
  C  C4  1  0.920200  0.591500  0.288300  1
  C  C5  1  1.271100  0.493600  0.365960  1
  C  C6  1  0.730200  0.677700  0.296900  1
  C  C7  1  1.288800  0.580300  0.485350  1
  C  C8  1  1.386700  0.495300  0.432430  1
  C  C9  1  1.403900  0.583600  0.551510  1
  C  C10  1  1.596100  0.416400  0.448490  1
  C  C11  1  1.613300  0.504700  0.567570  1
  C  C12  1  1.711200  0.419700  0.514650  1
  C  C13  1  1.728900  0.506400  0.634040  1
  C  C14  1  1.920600  0.341400  0.530570  1
  C  C15  1  1.930000  0.427100  0.649000  1
  C  C16  1  2.026700  0.344800  0.595920  1
  C  C17  1  2.079800  0.408500  0.711700  1
  C  C18  1  2.269800  0.322300  0.703100  1
  H  H19  1  0.997479  0.723391  0.508630  1
  H  H20  1  0.948904  0.543232  0.237390  1
  H  H21  1  1.339078  0.429200  0.325006  1
  H  H22  1  0.617513  0.687052  0.249396  1
  H  H23  1  1.329053  0.648843  0.591275  1
  H  H24  1  1.670947  0.351157  0.408725  1
  H  H25  1  1.660922  0.570800  0.674994  1
  H  H26  1  2.002521  0.276609  0.491370  1
  H  H27  1  2.051096  0.456768  0.762610  1
  H  H28  1  2.382487  0.312948  0.750604  1
  S  S29  1  0.712870  0.749570  0.378290  1
  S  S30  1  2.287130  0.250430  0.621710  1
