# generated using pymatgen
data_H5C9S
_symmetry_space_group_name_H-M   'P 1'
_cell_length_a   6.73180000
_cell_length_b   7.25110000
_cell_length_c   16.69500000
_cell_angle_alpha   98.14420000
_cell_angle_beta   94.52890000
_cell_angle_gamma   103.91830000
_symmetry_Int_Tables_number   1
_chemical_formula_structural   H5C9S
_chemical_formula_sum   'H10 C18 S2'
_cell_volume   777.59065184
_cell_formula_units_Z   2
loop_
 _symmetry_equiv_pos_site_id
 _symmetry_equiv_pos_as_xyz
  1  'x, y, z'
loop_
 _atom_site_type_symbol
 _atom_site_label
 _atom_site_symmetry_multiplicity
 _atom_site_fract_x
 _atom_site_fract_y
 _atom_site_fract_z
 _atom_site_occupancy
  C  C1  1  0.037700  0.807100  0.539880  1
  C  C2  1  0.252900  0.908200  0.539700  1
  C  C3  1  -0.039700  0.857100  0.615000  1
  C  C4  1  -0.087400  0.677400  0.477440  1
  C  C5  1  0.328800  1.031400  0.611250  1
  C  C6  1  -0.236800  0.771400  0.627810  1
  C  C7  1  -0.294000  0.589500  0.487760  1
  C  C8  1  -0.367900  0.633300  0.565040  1
  C  C9  1  -0.427700  0.459600  0.423690  1
  C  C10  1  -0.572300  0.540400  0.576310  1
  C  C11  1  -0.632100  0.366700  0.434960  1
  C  C12  1  -0.706000  0.410500  0.512240  1
  C  C13  1  -0.763200  0.228600  0.372190  1
  C  C14  1  -0.912600  0.322600  0.522560  1
  C  C15  1  -0.960300  0.142900  0.385000  1
  C  C16  1  -1.037700  0.192900  0.460120  1
  C  C17  1  -1.252900  0.091800  0.460300  1
  C  C18  1  -1.328800  -0.031400  0.388750  1
  H  H19  1  0.349152  0.892930  0.490137  1
  H  H20  1  -0.023190  0.644468  0.420116  1
  H  H21  1  0.490872  1.109807  0.612230  1
  H  H22  1  -0.288554  0.812489  0.687076  1
  H  H23  1  -0.371878  0.430386  0.364204  1
  H  H24  1  -0.628122  0.569614  0.635796  1
  H  H25  1  -0.711446  0.187511  0.312924  1
  H  H26  1  -0.976810  0.355532  0.579884  1
  H  H27  1  -1.349152  0.107070  0.509863  1
  H  H28  1  -1.490872  -0.109807  0.387770  1
  S  S29  1  0.150120  1.031440  0.681260  1
  S  S30  1  -1.150120  -0.031440  0.318740  1
