# generated using pymatgen
data_GeH27C22
_symmetry_space_group_name_H-M   'P 1'
_cell_length_a   7.72830000
_cell_length_b   7.76280000
_cell_length_c   16.88050000
_cell_angle_alpha   78.07700000
_cell_angle_beta   89.22800000
_cell_angle_gamma   81.78800000
_symmetry_Int_Tables_number   1
_chemical_formula_structural   GeH27C22
_chemical_formula_sum   'Ge2 H54 C44'
_cell_volume   980.57331195
_cell_formula_units_Z   2
loop_
 _symmetry_equiv_pos_site_id
 _symmetry_equiv_pos_as_xyz
  1  'x, y, z'
loop_
 _atom_site_type_symbol
 _atom_site_label
 _atom_site_symmetry_multiplicity
 _atom_site_fract_x
 _atom_site_fract_y
 _atom_site_fract_z
 _atom_site_occupancy
  C  C1  1  0.311900  0.338500  0.723890  1
  C  C2  1  -0.044500  0.325200  0.812600  1
  C  C3  1  0.307200  0.360100  0.907000  1
  C  C4  1  0.290600  -0.012600  0.861300  1
  C  C5  1  0.370700  0.389600  0.658380  1
  C  C6  1  -0.122300  0.251200  0.746900  1
  C  C7  1  -0.082400  0.527900  0.795700  1
  C  C8  1  0.223900  0.312700  0.988300  1
  C  C9  1  0.501200  0.324600  0.910600  1
  C  C10  1  0.160000  -0.103000  0.915300  1
  C  C11  1  0.333000  -0.104800  0.790600  1
  C  C12  1  0.437800  0.446500  0.579910  1
  C  C13  1  0.545700  0.321800  0.543110  1
  C  C14  1  0.392700  0.625900  0.537420  1
  C  C15  1  0.590700  0.142700  0.583950  1
  C  C16  1  0.607300  0.374100  0.462580  1
  C  C17  1  0.454300  0.678200  0.456890  1
  C  C18  1  0.290200  0.752900  0.573160  1
  C  C19  1  0.692700  0.019400  0.548160  1
  C  C20  1  0.562200  0.553500  0.420090  1
  C  C21  1  0.709800  0.247100  0.426840  1
  C  C22  1  0.409300  0.857300  0.416050  1
  C  C23  1  0.248300  0.927800  0.532310  1
  C  C24  1  0.737000  -0.162400  0.589400  1
  C  C25  1  0.751700  0.072200  0.467690  1
  C  C26  1  0.629300  0.610400  0.341620  1
  C  C27  1  0.307300  0.980600  0.451840  1
  C  C28  1  0.144200  1.060300  0.568080  1
  C  C29  1  0.835500  -0.282100  0.552500  1
  C  C30  1  0.855800  -0.060300  0.431920  1
  C  C31  1  0.688100  0.661500  0.276110  1
  C  C32  1  0.263000  1.162400  0.410600  1
  C  C33  1  0.106200  1.230000  0.526400  1
  C  C34  1  0.893800  -0.230000  0.473600  1
  C  C35  1  0.164500  1.282100  0.447500  1
  C  C36  1  1.044500  0.674800  0.187400  1
  C  C37  1  0.692800  0.639900  0.093000  1
  C  C38  1  0.709400  1.012600  0.138700  1
  C  C39  1  1.122300  0.748800  0.253100  1
  C  C40  1  1.082400  0.472100  0.204300  1
  C  C41  1  0.776100  0.687300  0.011700  1
  C  C42  1  0.498800  0.675400  0.089400  1
  C  C43  1  0.840000  1.103000  0.084700  1
  C  C44  1  0.667000  1.104800  0.209400  1
  Ge  Ge45  1  0.208160  0.249350  0.825170  1.0
  Ge  Ge46  1  0.791840  0.750650  0.174830  1
  H  H47  1  -0.099678  0.278895  0.864435  1
  H  H48  1  0.275652  0.490259  0.888294  1
  H  H49  1  0.399670  -0.026151  0.893462  1
  H  H50  1  -0.245250  0.299354  0.739260  1
  H  H51  1  -0.109994  0.122606  0.762748  1
  H  H52  1  -0.061420  0.284477  0.696647  1
  H  H53  1  -0.206889  0.565456  0.786120  1
  H  H54  1  -0.019202  0.576569  0.748199  1
  H  H55  1  -0.045287  0.570411  0.841926  1
  H  H56  1  0.267758  0.377282  1.025337  1
  H  H57  1  0.252313  0.185821  1.009571  1
  H  H58  1  0.098035  0.344368  0.982397  1
  H  H59  1  0.544348  0.384947  0.949493  1
  H  H60  1  0.547058  0.367996  0.857554  1
  H  H61  1  0.538836  0.197557  0.926971  1
  H  H62  1  0.202323  -0.229448  0.930727  1
  H  H63  1  0.049117  -0.085470  0.886522  1
  H  H64  1  0.144792  -0.053050  0.963420  1
  H  H65  1  0.372788  -0.230195  0.811104  1
  H  H66  1  0.423944  -0.051434  0.758477  1
  H  H67  1  0.228786  -0.091392  0.757118  1
  H  H68  1  0.550294  0.106600  0.636710  1
  H  H69  1  0.249194  0.718350  0.625918  1
  H  H70  1  0.750806  0.281650  0.374082  1
  H  H71  1  0.449706  0.893400  0.363290  1
  H  H72  1  0.697807  -0.199216  0.642338  1
  H  H73  1  0.102291  1.028471  0.620860  1
  H  H74  1  0.864498  -0.400666  0.580291  1
  H  H75  1  0.897709  -0.028471  0.379140  1
  H  H76  1  0.302193  1.199216  0.357662  1
  H  H77  1  0.039126  1.314793  0.550961  1
  H  H78  1  0.960874  -0.314793  0.449039  1
  H  H79  1  0.135502  1.400666  0.419709  1
  H  H80  1  1.099678  0.721105  0.135565  1
  H  H81  1  0.724348  0.509741  0.111706  1
  H  H82  1  0.600330  1.026151  0.106538  1
  H  H83  1  1.245250  0.700646  0.260740  1
  H  H84  1  1.109994  0.877394  0.237252  1
  H  H85  1  1.061420  0.715523  0.303353  1
  H  H86  1  1.206889  0.434544  0.213880  1
  H  H87  1  1.019202  0.423431  0.251801  1
  H  H88  1  1.045287  0.429589  0.158074  1
  H  H89  1  0.732242  0.622718  -0.025337  1
  H  H90  1  0.747687  0.814179  -0.009571  1
  H  H91  1  0.901965  0.655632  0.017603  1
  H  H92  1  0.455652  0.615053  0.050507  1
  H  H93  1  0.452942  0.632004  0.142446  1
  H  H94  1  0.461164  0.802443  0.073029  1
  H  H95  1  0.797677  1.229448  0.069273  1
  H  H96  1  0.950883  1.085470  0.113478  1
  H  H97  1  0.855208  1.053050  0.036580  1
  H  H98  1  0.627212  1.230195  0.188896  1
  H  H99  1  0.576056  1.051434  0.241523  1
  H  H100  1  0.771214  1.091392  0.242882  1
