# generated using pymatgen
data_SiH14C16Cl
_symmetry_space_group_name_H-M   'P 1'
_cell_length_a   6.13200000
_cell_length_b   14.91840000
_cell_length_c   15.48530000
_cell_angle_alpha   95.32400000
_cell_angle_beta   100.99700000
_cell_angle_gamma   100.36300000
_symmetry_Int_Tables_number   1
_chemical_formula_structural   SiH14C16Cl
_chemical_formula_sum   'Si4 H56 C64 Cl4'
_cell_volume   1355.99205286
_cell_formula_units_Z   4
loop_
 _symmetry_equiv_pos_site_id
 _symmetry_equiv_pos_as_xyz
  1  'x, y, z'
loop_
 _atom_site_type_symbol
 _atom_site_label
 _atom_site_symmetry_multiplicity
 _atom_site_fract_x
 _atom_site_fract_y
 _atom_site_fract_z
 _atom_site_occupancy
  C  C1  1  0.201900  0.732430  0.395430  1
  C  C2  1  0.138000  0.913960  0.327620  1
  C  C3  1  0.449700  0.800240  0.257430  1
  C  C4  1  0.575000  0.894980  0.448510  1
  C  C5  1  0.135900  0.662700  0.424300  1
  C  C6  1  0.065700  0.580430  0.461920  1
  C  C7  1  -0.157600  0.528170  0.431880  1
  C  C8  1  0.224600  0.553890  0.528750  1
  C  C9  1  -0.317000  0.553000  0.364420  1
  C  C10  1  -0.224600  0.446110  0.471250  1
  C  C11  1  0.157600  0.471830  0.568120  1
  C  C12  1  0.447800  0.604980  0.558170  1
  C  C13  1  -0.535000  0.501230  0.335490  1
  C  C14  1  -0.065700  0.419570  0.538080  1
  C  C15  1  -0.447800  0.395020  0.441830  1
  C  C16  1  0.317000  0.447000  0.635580  1
  C  C17  1  0.602000  0.579620  0.624800  1
  C  C18  1  -0.698700  0.525790  0.267190  1
  C  C19  1  -0.602000  0.420380  0.375200  1
  C  C20  1  -0.135900  0.337300  0.575700  1
  C  C21  1  0.535000  0.498770  0.664510  1
  C  C22  1  0.829500  0.631860  0.654290  1
  C  C23  1  -0.911500  0.474110  0.240450  1
  C  C24  1  -0.829500  0.368140  0.345710  1
  C  C25  1  -0.201900  0.267570  0.604570  1
  C  C26  1  0.698700  0.474210  0.732810  1
  C  C27  1  0.977400  0.606360  0.719600  1
  C  C28  1  -0.977400  0.393640  0.280400  1
  C  C29  1  0.911500  0.525890  0.759550  1
  C  C30  1  -0.138000  0.086040  0.672380  1
  C  C31  1  -0.449700  0.199760  0.742570  1
  C  C32  1  -0.575000  0.105020  0.551490  1
  C  C33  1  0.312300  0.786100  0.961120  1
  C  C34  1  0.557800  0.642060  0.885260  1
  C  C35  1  0.267700  0.599900  1.021920  1
  C  C36  1  0.713600  0.745390  1.072810  1
  C  C37  1  0.219600  0.850610  0.965580  1
  C  C38  1  0.112400  0.927060  0.980230  1
  C  C39  1  -0.091700  0.934020  0.922420  1
  C  C40  1  0.206700  0.993000  1.056500  1
  C  C41  1  -0.185100  0.872250  0.844140  1
  C  C42  1  -0.206700  1.007000  0.943500  1
  C  C43  1  0.091700  1.065980  1.077580  1
  C  C44  1  0.414000  0.989350  1.112940  1
  C  C45  1  -0.385700  0.878170  0.787850  1
  C  C46  1  -0.112400  1.072940  1.019770  1
  C  C47  1  -0.414000  1.010650  0.887060  1
  C  C48  1  0.185100  1.127750  1.155860  1
  C  C49  1  0.505900  1.051770  1.188810  1
  C  C50  1  -0.479200  0.816980  0.707200  1
  C  C51  1  -0.505900  0.948230  0.811190  1
  C  C52  1  -0.219600  1.149390  1.034420  1
  C  C53  1  0.385700  1.121830  1.212150  1
  C  C54  1  0.717200  1.048780  1.245330  1
  C  C55  1  -0.678400  0.824080  0.654080  1
  C  C56  1  -0.717200  0.951220  0.754670  1
  C  C57  1  -0.312300  1.213900  1.038880  1
  C  C58  1  0.479200  1.183020  1.292800  1
  C  C59  1  0.800100  1.108640  1.321180  1
  C  C60  1  -0.800100  0.891360  0.678820  1
  C  C61  1  0.678400  1.175920  1.345920  1
  C  C62  1  -0.557800  1.357940  1.114740  1
  C  C63  1  -0.267700  1.400100  0.978080  1
  C  C64  1  -0.713600  1.254610  0.927190  1
  Cl  Cl65  1  0.775250  0.821090  0.473400  1
  Cl  Cl66  1  -0.775250  0.178910  0.526600  1
  Cl  Cl67  1  0.816340  0.662070  1.138780  1
  Cl  Cl68  1  -0.816340  1.337930  0.861220  1
  H  H69  1  0.009200  0.882600  0.280400  1
  H  H70  1  0.217600  0.968600  0.307600  1
  H  H71  1  0.083000  0.932400  0.380600  1
  H  H72  1  0.557900  0.760600  0.274100  1
  H  H73  1  0.526700  0.855100  0.236900  1
  H  H74  1  0.325000  0.766600  0.209700  1
  H  H75  1  0.651900  0.952900  0.431600  1
  H  H76  1  0.514600  0.910300  0.501700  1
  H  H77  1  -0.273500  0.606700  0.338200  1
  H  H78  1  0.494100  0.658200  0.531700  1
  H  H79  1  -0.494100  0.341800  0.468300  1
  H  H80  1  0.273500  0.393300  0.661800  1
  H  H81  1  -0.657400  0.579200  0.240200  1
  H  H82  1  0.876900  0.684900  0.627700  1
  H  H83  1  -1.017200  0.491500  0.195000  1
  H  H84  1  -0.876900  0.315100  0.372300  1
  H  H85  1  0.657400  0.420800  0.759800  1
  H  H86  1  1.126400  0.642300  0.739100  1
  H  H87  1  -1.126400  0.357700  0.260900  1
  H  H88  1  1.017200  0.508500  0.805000  1
  H  H89  1  -0.009200  0.117400  0.719600  1
  H  H90  1  -0.217600  0.031400  0.692400  1
  H  H91  1  -0.083000  0.067600  0.619400  1
  H  H92  1  -0.557900  0.239400  0.725900  1
  H  H93  1  -0.526700  0.144900  0.763100  1
  H  H94  1  -0.325000  0.233400  0.790300  1
  H  H95  1  -0.651900  0.047100  0.568400  1
  H  H96  1  -0.514600  0.089700  0.498300  1
  H  H97  1  0.430400  0.599900  0.844900  1
  H  H98  1  0.677700  0.608700  0.905500  1
  H  H99  1  0.617300  0.692200  0.854100  1
  H  H100  1  0.224600  0.626200  1.075000  1
  H  H101  1  0.345800  0.549700  1.036500  1
  H  H102  1  0.131300  0.576100  0.975400  1
  H  H103  1  0.836400  0.776000  1.045900  1
  H  H104  1  0.671200  0.793000  1.111600  1
  H  H105  1  -0.108200  0.825000  0.829400  1
  H  H106  1  0.492900  0.942700  1.098500  1
  H  H107  1  -0.492900  1.057300  0.901500  1
  H  H108  1  0.108200  1.175000  1.170600  1
  H  H109  1  -0.401400  0.770800  0.690500  1
  H  H110  1  0.801000  1.004300  1.229700  1
  H  H111  1  -0.736200  0.783700  0.600100  1
  H  H112  1  -0.801000  0.995700  0.770300  1
  H  H113  1  0.401400  1.229200  1.309500  1
  H  H114  1  0.940700  1.105400  1.358000  1
  H  H115  1  -0.940700  0.894600  0.642000  1
  H  H116  1  0.736200  1.216300  1.399900  1
  H  H117  1  -0.430400  1.400100  1.155100  1
  H  H118  1  -0.677700  1.391300  1.094500  1
  H  H119  1  -0.617300  1.307800  1.145900  1
  H  H120  1  -0.224600  1.373800  0.925000  1
  H  H121  1  -0.345800  1.450300  0.963500  1
  H  H122  1  -0.131300  1.423900  1.024600  1
  H  H123  1  -0.836400  1.224000  0.954100  1
  H  H124  1  -0.671200  1.207000  0.888400  1
  Si  Si125  1  0.335510  0.834930  0.354620  1.0
  Si  Si126  1  -0.335510  0.165070  0.645380  1
  Si  Si127  1  0.459660  0.690130  0.981990  1.0
  Si  Si128  1  -0.459660  1.309870  1.018010  1
