# generated using pymatgen
data_SiH30C23SI
_symmetry_space_group_name_H-M   'P 1'
_cell_length_a   17.07990000
_cell_length_b   19.00920000
_cell_length_c   15.34110000
_cell_angle_alpha   90.00000000
_cell_angle_beta   109.98400000
_cell_angle_gamma   90.00000000
_symmetry_Int_Tables_number   1
_chemical_formula_structural   SiH30C23SI
_chemical_formula_sum   'Si8 H240 C184 S8 I8'
_cell_volume   4680.96725753
_cell_formula_units_Z   8
loop_
 _symmetry_equiv_pos_site_id
 _symmetry_equiv_pos_as_xyz
  1  'x, y, z'
loop_
 _atom_site_type_symbol
 _atom_site_label
 _atom_site_symmetry_multiplicity
 _atom_site_fract_x
 _atom_site_fract_y
 _atom_site_fract_z
 _atom_site_occupancy
  C  C1  1  0.768000  0.193900  0.116300  1
  C  C2  1  0.631100  0.278600  0.151000  1
  C  C3  1  0.586100  0.157900  0.005300  1
  C  C4  1  0.660100  0.116700  0.205900  1
  C  C5  1  0.837300  0.200200  0.116000  1
  C  C6  1  0.682100  0.342000  0.151100  1
  C  C7  1  0.587700  0.086800  -0.030900  1
  C  C8  1  0.736800  0.111000  0.286800  1
  C  C9  1  0.921400  0.207000  0.114400  1
  C  C10  1  0.667000  0.405800  0.196000  1
  C  C11  1  0.668500  0.363000  0.050500  1
  C  C12  1  0.519100  0.059500  -0.109000  1
  C  C13  1  0.671400  0.062800  -0.033000  1
  C  C14  1  0.760000  0.173200  0.345000  1
  C  C15  1  0.732000  0.049200  0.348000  1
  C  C16  1  0.967400  0.147100  0.117100  1
  C  C17  1  0.952800  0.275000  0.112600  1
  C  C18  1  0.939300  0.078600  0.121500  1
  C  C19  1  1.050300  0.156000  0.111300  1
  C  C20  1  1.035700  0.284600  0.112400  1
  C  C21  1  0.905700  0.335600  0.116000  1
  C  C22  1  0.990300  0.022100  0.125800  1
  C  C23  1  1.099600  0.095800  0.114300  1
  C  C24  1  1.082400  0.225200  0.110400  1
  C  C25  1  1.066000  0.354200  0.116200  1
  C  C26  1  0.936500  0.402100  0.118600  1
  C  C27  1  1.071800  0.030100  0.122300  1
  C  C28  1  1.164000  0.233200  0.100100  1
  C  C29  1  1.019100  0.410800  0.119400  1
  C  C30  1  0.897300  0.469200  0.122000  1
  C  C31  1  1.104900  -0.037000  0.123500  1
  C  C32  1  1.057500  -0.092200  0.131000  1
  C  C33  1  1.230100  0.235200  0.093900  1
  C  C34  1  0.950600  0.522200  0.124800  1
  C  C35  1  1.352000  0.324800  0.030000  1
  C  C36  1  1.412100  0.214400  0.186100  1
  C  C37  1  1.329900  0.168400  -0.016000  1
  C  C38  1  1.371200  0.386100  0.092000  1
  C  C39  1  1.402400  0.162000  0.249300  1
  C  C40  1  1.247300  0.147600  -0.083300  1
  C  C41  1  1.305000  0.405000  0.129000  1
  C  C42  1  1.398000  0.449100  0.046000  1
  C  C43  1  1.361000  0.096500  0.221100  1
  C  C44  1  1.476900  0.155400  0.338500  1
  C  C45  1  1.199200  0.205100  -0.139900  1
  C  C46  1  1.257200  0.087000  -0.143900  1
  C  C47  1  1.232000  -0.306100  0.383700  1
  C  C48  1  1.368900  -0.221400  0.349000  1
  C  C49  1  1.413900  -0.342100  0.494700  1
  C  C50  1  1.339900  -0.383300  0.294100  1
  C  C51  1  1.162700  -0.299800  0.384000  1
  C  C52  1  1.317900  -0.158000  0.348900  1
  C  C53  1  1.412300  -0.413200  0.530900  1
  C  C54  1  1.263200  -0.389000  0.213200  1
  C  C55  1  1.078600  -0.293000  0.385600  1
  C  C56  1  1.333000  -0.094200  0.304000  1
  C  C57  1  1.331500  -0.137000  0.449500  1
  C  C58  1  1.480900  -0.440500  0.609000  1
  C  C59  1  1.328600  -0.437200  0.533000  1
  C  C60  1  1.240000  -0.326800  0.155000  1
  C  C61  1  1.268000  -0.450800  0.152000  1
  C  C62  1  1.032600  -0.352900  0.382900  1
  C  C63  1  1.047200  -0.225000  0.387400  1
  C  C64  1  1.060700  -0.421400  0.378500  1
  C  C65  1  0.949700  -0.344000  0.388700  1
  C  C66  1  0.964300  -0.215400  0.387600  1
  C  C67  1  1.094300  -0.164400  0.384000  1
  C  C68  1  1.009700  -0.477900  0.374200  1
  C  C69  1  0.900400  -0.404200  0.385700  1
  C  C70  1  0.917600  -0.274800  0.389600  1
  C  C71  1  0.934000  -0.145800  0.383800  1
  C  C72  1  1.063500  -0.097900  0.381400  1
  C  C73  1  0.928200  -0.469900  0.377700  1
  C  C74  1  0.836000  -0.266800  0.399900  1
  C  C75  1  0.980900  -0.089200  0.380600  1
  C  C76  1  1.102700  -0.030800  0.378000  1
  C  C77  1  0.895100  -0.537000  0.376500  1
  C  C78  1  0.942500  -0.592200  0.369000  1
  C  C79  1  0.769900  -0.264800  0.406100  1
  C  C80  1  1.049400  0.022200  0.375200  1
  C  C81  1  0.648000  -0.175200  0.470000  1
  C  C82  1  0.587900  -0.285600  0.313900  1
  C  C83  1  0.670100  -0.331600  0.516000  1
  C  C84  1  0.628800  -0.113900  0.408000  1
  C  C85  1  0.597600  -0.338000  0.250700  1
  C  C86  1  0.752700  -0.352400  0.583300  1
  C  C87  1  0.695000  -0.095000  0.371000  1
  C  C88  1  0.602000  -0.050900  0.454000  1
  C  C89  1  0.639000  -0.403500  0.278900  1
  C  C90  1  0.523100  -0.344600  0.161500  1
  C  C91  1  0.800800  -0.294900  0.639900  1
  C  C92  1  0.742800  -0.413000  0.643900  1
  C  C93  1  1.232000  -0.193900  -0.116300  1
  C  C94  1  1.368900  -0.278600  -0.151000  1
  C  C95  1  1.413900  -0.157900  -0.005300  1
  C  C96  1  1.339900  -0.116700  -0.205900  1
  C  C97  1  1.162700  -0.200200  -0.116000  1
  C  C98  1  1.317900  -0.342000  -0.151100  1
  C  C99  1  1.412300  -0.086800  0.030900  1
  C  C100  1  1.263200  -0.111000  -0.286800  1
  C  C101  1  1.078600  -0.207000  -0.114400  1
  C  C102  1  1.333000  -0.405800  -0.196000  1
  C  C103  1  1.331500  -0.363000  -0.050500  1
  C  C104  1  1.480900  -0.059500  0.109000  1
  C  C105  1  1.328600  -0.062800  0.033000  1
  C  C106  1  1.240000  -0.173200  -0.345000  1
  C  C107  1  1.268000  -0.049200  -0.348000  1
  C  C108  1  1.032600  -0.147100  -0.117100  1
  C  C109  1  1.047200  -0.275000  -0.112600  1
  C  C110  1  1.060700  -0.078600  -0.121500  1
  C  C111  1  0.949700  -0.156000  -0.111300  1
  C  C112  1  0.964300  -0.284600  -0.112400  1
  C  C113  1  1.094300  -0.335600  -0.116000  1
  C  C114  1  1.009700  -0.022100  -0.125800  1
  C  C115  1  0.900400  -0.095800  -0.114300  1
  C  C116  1  0.917600  -0.225200  -0.110400  1
  C  C117  1  0.934000  -0.354200  -0.116200  1
  C  C118  1  1.063500  -0.402100  -0.118600  1
  C  C119  1  0.928200  -0.030100  -0.122300  1
  C  C120  1  0.836000  -0.233200  -0.100100  1
  C  C121  1  0.980900  -0.410800  -0.119400  1
  C  C122  1  1.102700  -0.469200  -0.122000  1
  C  C123  1  0.895100  0.037000  -0.123500  1
  C  C124  1  0.942500  0.092200  -0.131000  1
  C  C125  1  0.769900  -0.235200  -0.093900  1
  C  C126  1  1.049400  -0.522200  -0.124800  1
  C  C127  1  0.648000  -0.324800  -0.030000  1
  C  C128  1  0.587900  -0.214400  -0.186100  1
  C  C129  1  0.670100  -0.168400  0.016000  1
  C  C130  1  0.628800  -0.386100  -0.092000  1
  C  C131  1  0.597600  -0.162000  -0.249300  1
  C  C132  1  0.752700  -0.147600  0.083300  1
  C  C133  1  0.695000  -0.405000  -0.129000  1
  C  C134  1  0.602000  -0.449100  -0.046000  1
  C  C135  1  0.639000  -0.096500  -0.221100  1
  C  C136  1  0.523100  -0.155400  -0.338500  1
  C  C137  1  0.800800  -0.205100  0.139900  1
  C  C138  1  0.742800  -0.087000  0.143900  1
  C  C139  1  0.768000  0.306100  0.616300  1
  C  C140  1  0.631100  0.221400  0.651000  1
  C  C141  1  0.586100  0.342100  0.505300  1
  C  C142  1  0.660100  0.383300  0.705900  1
  C  C143  1  0.837300  0.299800  0.616000  1
  C  C144  1  0.682100  0.158000  0.651100  1
  C  C145  1  0.587700  0.413200  0.469100  1
  C  C146  1  0.736800  0.389000  0.786800  1
  C  C147  1  0.921400  0.293000  0.614400  1
  C  C148  1  0.667000  0.094200  0.696000  1
  C  C149  1  0.668500  0.137000  0.550500  1
  C  C150  1  0.519100  0.440500  0.391000  1
  C  C151  1  0.671400  0.437200  0.467000  1
  C  C152  1  0.760000  0.326800  0.845000  1
  C  C153  1  0.732000  0.450800  0.848000  1
  C  C154  1  0.967400  0.352900  0.617100  1
  C  C155  1  0.952800  0.225000  0.612600  1
  C  C156  1  0.939300  0.421400  0.621500  1
  C  C157  1  1.050300  0.344000  0.611300  1
  C  C158  1  1.035700  0.215400  0.612400  1
  C  C159  1  0.905700  0.164400  0.616000  1
  C  C160  1  0.990300  0.477900  0.625800  1
  C  C161  1  1.099600  0.404200  0.614300  1
  C  C162  1  1.082400  0.274800  0.610400  1
  C  C163  1  1.066000  0.145800  0.616200  1
  C  C164  1  0.936500  0.097900  0.618600  1
  C  C165  1  1.071800  0.469900  0.622300  1
  C  C166  1  1.164000  0.266800  0.600100  1
  C  C167  1  1.019100  0.089200  0.619400  1
  C  C168  1  0.897300  0.030800  0.622000  1
  C  C169  1  1.104900  0.537000  0.623500  1
  C  C170  1  1.057500  0.592200  0.631000  1
  C  C171  1  1.230100  0.264800  0.593900  1
  C  C172  1  0.950600  -0.022200  0.624800  1
  C  C173  1  1.352000  0.175200  0.530000  1
  C  C174  1  1.412100  0.285600  0.686100  1
  C  C175  1  1.329900  0.331600  0.484000  1
  C  C176  1  1.371200  0.113900  0.592000  1
  C  C177  1  1.402400  0.338000  0.749300  1
  C  C178  1  1.247300  0.352400  0.416700  1
  C  C179  1  1.305000  0.095000  0.629000  1
  C  C180  1  1.398000  0.050900  0.546000  1
  C  C181  1  1.361000  0.403500  0.721100  1
  C  C182  1  1.476900  0.344600  0.838500  1
  C  C183  1  1.199200  0.294900  0.360100  1
  C  C184  1  1.257200  0.413000  0.356100  1
  H  H185  1  0.574200  0.288200  0.107400  1
  H  H186  1  0.626700  0.275200  0.213700  1
  H  H187  1  0.529400  0.165100  0.007400  1
  H  H188  1  0.592200  0.190900  -0.041900  1
  H  H189  1  0.612900  0.125500  0.227900  1
  H  H190  1  0.649900  0.071100  0.172700  1
  H  H191  1  0.742100  0.328800  0.181000  1
  H  H192  1  0.582600  0.057600  0.021100  1
  H  H193  1  0.783400  0.100900  0.263000  1
  H  H194  1  0.711400  0.440100  0.199500  1
  H  H195  1  0.667900  0.394700  0.258000  1
  H  H196  1  0.613200  0.425700  0.158900  1
  H  H197  1  0.681600  0.322900  0.017600  1
  H  H198  1  0.704900  0.402600  0.049700  1
  H  H199  1  0.610200  0.376700  0.019800  1
  H  H200  1  0.533900  0.013100  -0.126200  1
  H  H201  1  0.507800  0.091600  -0.161700  1
  H  H202  1  0.469200  0.055500  -0.091200  1
  H  H203  1  0.664900  0.017600  -0.065800  1
  H  H204  1  0.710300  0.057400  0.030200  1
  H  H205  1  0.693100  0.097900  -0.065900  1
  H  H206  1  0.809800  0.162900  0.399100  1
  H  H207  1  0.714200  0.186700  0.366300  1
  H  H208  1  0.772400  0.211900  0.309600  1
  H  H209  1  0.708000  0.008400  0.308900  1
  H  H210  1  0.696800  0.062000  0.384400  1
  H  H211  1  0.788100  0.037500  0.389900  1
  H  H212  1  0.884300  0.071200  0.121500  1
  H  H213  1  0.850600  0.329800  0.116400  1
  H  H214  1  1.153600  0.101400  0.110600  1
  H  H215  1  1.121100  0.361400  0.116400  1
  H  H216  1  0.842300  0.475000  0.123200  1
  H  H217  1  1.158500  -0.043800  0.119100  1
  H  H218  1  1.399000  0.318700  0.006200  1
  H  H219  1  1.302400  0.336700  -0.024500  1
  H  H220  1  1.462500  0.201200  0.171900  1
  H  H221  1  1.425400  0.259000  0.221400  1
  H  H222  1  1.364000  0.186700  -0.051700  1
  H  H223  1  1.357800  0.125300  0.016400  1
  H  H224  1  1.421100  0.372900  0.146000  1
  H  H225  1  1.361800  0.186300  0.273200  1
  H  H226  1  1.213800  0.129100  -0.046000  1
  H  H227  1  1.290300  0.362900  0.157800  1
  H  H228  1  1.256100  0.421600  0.079200  1
  H  H229  1  1.325500  0.441500  0.176400  1
  H  H230  1  1.425800  0.483800  0.093300  1
  H  H231  1  1.348300  0.470500  0.000400  1
  H  H232  1  1.435700  0.433200  0.014400  1
  H  H233  1  1.314600  0.092600  0.244700  1
  H  H234  1  1.400400  0.057900  0.246000  1
  H  H235  1  1.339600  0.093900  0.153200  1
  H  H236  1  1.479600  0.107400  0.362500  1
  H  H237  1  1.470800  0.188700  0.384500  1
  H  H238  1  1.528100  0.165900  0.325700  1
  H  H239  1  1.191000  0.242100  -0.099300  1
  H  H240  1  1.144900  0.187400  -0.179800  1
  H  H241  1  1.229500  0.224400  -0.178400  1
  H  H242  1  1.202300  0.072800  -0.186500  1
  H  H243  1  1.283800  0.047100  -0.104600  1
  H  H244  1  1.291900  0.102300  -0.179800  1
  H  H245  1  1.425800  -0.211800  0.392600  1
  H  H246  1  1.373300  -0.224800  0.286300  1
  H  H247  1  1.470600  -0.334900  0.492600  1
  H  H248  1  1.407800  -0.309100  0.541900  1
  H  H249  1  1.387100  -0.374500  0.272100  1
  H  H250  1  1.350100  -0.428900  0.327300  1
  H  H251  1  1.257900  -0.171200  0.319000  1
  H  H252  1  1.417400  -0.442400  0.478900  1
  H  H253  1  1.216600  -0.399100  0.237000  1
  H  H254  1  1.288600  -0.059900  0.300500  1
  H  H255  1  1.332100  -0.105300  0.242000  1
  H  H256  1  1.386800  -0.074300  0.341100  1
  H  H257  1  1.318400  -0.177100  0.482400  1
  H  H258  1  1.295100  -0.097400  0.450300  1
  H  H259  1  1.389800  -0.123300  0.480200  1
  H  H260  1  1.466100  -0.486900  0.626200  1
  H  H261  1  1.492200  -0.408400  0.661700  1
  H  H262  1  1.530800  -0.444500  0.591200  1
  H  H263  1  1.335100  -0.482400  0.565800  1
  H  H264  1  1.289700  -0.442600  0.469800  1
  H  H265  1  1.306900  -0.402100  0.565900  1
  H  H266  1  1.190200  -0.337100  0.100900  1
  H  H267  1  1.285800  -0.313300  0.133700  1
  H  H268  1  1.227600  -0.288100  0.190400  1
  H  H269  1  1.292000  -0.491600  0.191100  1
  H  H270  1  1.303200  -0.438000  0.115600  1
  H  H271  1  1.211900  -0.462500  0.110100  1
  H  H272  1  1.115700  -0.428800  0.378500  1
  H  H273  1  1.149400  -0.170200  0.383600  1
  H  H274  1  0.846400  -0.398600  0.389400  1
  H  H275  1  0.878900  -0.138600  0.383600  1
  H  H276  1  1.157700  -0.025000  0.376800  1
  H  H277  1  0.841500  -0.543800  0.380900  1
  H  H278  1  0.601000  -0.181300  0.493800  1
  H  H279  1  0.697600  -0.163300  0.524500  1
  H  H280  1  0.537500  -0.298800  0.328100  1
  H  H281  1  0.574600  -0.241000  0.278600  1
  H  H282  1  0.636000  -0.313300  0.551700  1
  H  H283  1  0.642200  -0.374700  0.483600  1
  H  H284  1  0.578900  -0.127100  0.354000  1
  H  H285  1  0.638200  -0.313700  0.226800  1
  H  H286  1  0.786200  -0.370900  0.546000  1
  H  H287  1  0.709700  -0.137100  0.342200  1
  H  H288  1  0.743900  -0.078400  0.420800  1
  H  H289  1  0.674500  -0.058500  0.323600  1
  H  H290  1  0.574200  -0.016200  0.406700  1
  H  H291  1  0.651700  -0.029500  0.499600  1
  H  H292  1  0.564300  -0.066800  0.485600  1
  H  H293  1  0.685400  -0.407400  0.255300  1
  H  H294  1  0.599600  -0.442100  0.254000  1
  H  H295  1  0.660400  -0.406100  0.346800  1
  H  H296  1  0.520400  -0.392600  0.137500  1
  H  H297  1  0.529200  -0.311300  0.115500  1
  H  H298  1  0.471900  -0.334100  0.174300  1
  H  H299  1  0.809000  -0.257900  0.599300  1
  H  H300  1  0.855100  -0.312600  0.679800  1
  H  H301  1  0.770500  -0.275600  0.678400  1
  H  H302  1  0.797700  -0.427200  0.686500  1
  H  H303  1  0.716200  -0.452900  0.604600  1
  H  H304  1  0.708100  -0.397700  0.679800  1
  H  H305  1  1.425800  -0.288200  -0.107400  1
  H  H306  1  1.373300  -0.275200  -0.213700  1
  H  H307  1  1.470600  -0.165100  -0.007400  1
  H  H308  1  1.407800  -0.190900  0.041900  1
  H  H309  1  1.387100  -0.125500  -0.227900  1
  H  H310  1  1.350100  -0.071100  -0.172700  1
  H  H311  1  1.257900  -0.328800  -0.181000  1
  H  H312  1  1.417400  -0.057600  -0.021100  1
  H  H313  1  1.216600  -0.100900  -0.263000  1
  H  H314  1  1.288600  -0.440100  -0.199500  1
  H  H315  1  1.332100  -0.394700  -0.258000  1
  H  H316  1  1.386800  -0.425700  -0.158900  1
  H  H317  1  1.318400  -0.322900  -0.017600  1
  H  H318  1  1.295100  -0.402600  -0.049700  1
  H  H319  1  1.389800  -0.376700  -0.019800  1
  H  H320  1  1.466100  -0.013100  0.126200  1
  H  H321  1  1.492200  -0.091600  0.161700  1
  H  H322  1  1.530800  -0.055500  0.091200  1
  H  H323  1  1.335100  -0.017600  0.065800  1
  H  H324  1  1.289700  -0.057400  -0.030200  1
  H  H325  1  1.306900  -0.097900  0.065900  1
  H  H326  1  1.190200  -0.162900  -0.399100  1
  H  H327  1  1.285800  -0.186700  -0.366300  1
  H  H328  1  1.227600  -0.211900  -0.309600  1
  H  H329  1  1.292000  -0.008400  -0.308900  1
  H  H330  1  1.303200  -0.062000  -0.384400  1
  H  H331  1  1.211900  -0.037500  -0.389900  1
  H  H332  1  1.115700  -0.071200  -0.121500  1
  H  H333  1  1.149400  -0.329800  -0.116400  1
  H  H334  1  0.846400  -0.101400  -0.110600  1
  H  H335  1  0.878900  -0.361400  -0.116400  1
  H  H336  1  1.157700  -0.475000  -0.123200  1
  H  H337  1  0.841500  0.043800  -0.119100  1
  H  H338  1  0.601000  -0.318700  -0.006200  1
  H  H339  1  0.697600  -0.336700  0.024500  1
  H  H340  1  0.537500  -0.201200  -0.171900  1
  H  H341  1  0.574600  -0.259000  -0.221400  1
  H  H342  1  0.636000  -0.186700  0.051700  1
  H  H343  1  0.642200  -0.125300  -0.016400  1
  H  H344  1  0.578900  -0.372900  -0.146000  1
  H  H345  1  0.638200  -0.186300  -0.273200  1
  H  H346  1  0.786200  -0.129100  0.046000  1
  H  H347  1  0.709700  -0.362900  -0.157800  1
  H  H348  1  0.743900  -0.421600  -0.079200  1
  H  H349  1  0.674500  -0.441500  -0.176400  1
  H  H350  1  0.574200  -0.483800  -0.093300  1
  H  H351  1  0.651700  -0.470500  -0.000400  1
  H  H352  1  0.564300  -0.433200  -0.014400  1
  H  H353  1  0.685400  -0.092600  -0.244700  1
  H  H354  1  0.599600  -0.057900  -0.246000  1
  H  H355  1  0.660400  -0.093900  -0.153200  1
  H  H356  1  0.520400  -0.107400  -0.362500  1
  H  H357  1  0.529200  -0.188700  -0.384500  1
  H  H358  1  0.471900  -0.165900  -0.325700  1
  H  H359  1  0.809000  -0.242100  0.099300  1
  H  H360  1  0.855100  -0.187400  0.179800  1
  H  H361  1  0.770500  -0.224400  0.178400  1
  H  H362  1  0.797700  -0.072800  0.186500  1
  H  H363  1  0.716200  -0.047100  0.104600  1
  H  H364  1  0.708100  -0.102300  0.179800  1
  H  H365  1  0.574200  0.211800  0.607400  1
  H  H366  1  0.626700  0.224800  0.713700  1
  H  H367  1  0.529400  0.334900  0.507400  1
  H  H368  1  0.592200  0.309100  0.458100  1
  H  H369  1  0.612900  0.374500  0.727900  1
  H  H370  1  0.649900  0.428900  0.672700  1
  H  H371  1  0.742100  0.171200  0.681000  1
  H  H372  1  0.582600  0.442400  0.521100  1
  H  H373  1  0.783400  0.399100  0.763000  1
  H  H374  1  0.711400  0.059900  0.699500  1
  H  H375  1  0.667900  0.105300  0.758000  1
  H  H376  1  0.613200  0.074300  0.658900  1
  H  H377  1  0.681600  0.177100  0.517600  1
  H  H378  1  0.704900  0.097400  0.549700  1
  H  H379  1  0.610200  0.123300  0.519800  1
  H  H380  1  0.533900  0.486900  0.373800  1
  H  H381  1  0.507800  0.408400  0.338300  1
  H  H382  1  0.469200  0.444500  0.408800  1
  H  H383  1  0.664900  0.482400  0.434200  1
  H  H384  1  0.710300  0.442600  0.530200  1
  H  H385  1  0.693100  0.402100  0.434100  1
  H  H386  1  0.809800  0.337100  0.899100  1
  H  H387  1  0.714200  0.313300  0.866300  1
  H  H388  1  0.772400  0.288100  0.809600  1
  H  H389  1  0.708000  0.491600  0.808900  1
  H  H390  1  0.696800  0.438000  0.884400  1
  H  H391  1  0.788100  0.462500  0.889900  1
  H  H392  1  0.884300  0.428800  0.621500  1
  H  H393  1  0.850600  0.170200  0.616400  1
  H  H394  1  1.153600  0.398600  0.610600  1
  H  H395  1  1.121100  0.138600  0.616400  1
  H  H396  1  0.842300  0.025000  0.623200  1
  H  H397  1  1.158500  0.543800  0.619100  1
  H  H398  1  1.399000  0.181300  0.506200  1
  H  H399  1  1.302400  0.163300  0.475500  1
  H  H400  1  1.462500  0.298800  0.671900  1
  H  H401  1  1.425400  0.241000  0.721400  1
  H  H402  1  1.364000  0.313300  0.448300  1
  H  H403  1  1.357800  0.374700  0.516400  1
  H  H404  1  1.421100  0.127100  0.646000  1
  H  H405  1  1.361800  0.313700  0.773200  1
  H  H406  1  1.213800  0.370900  0.454000  1
  H  H407  1  1.290300  0.137100  0.657800  1
  H  H408  1  1.256100  0.078400  0.579200  1
  H  H409  1  1.325500  0.058500  0.676400  1
  H  H410  1  1.425800  0.016200  0.593300  1
  H  H411  1  1.348300  0.029500  0.500400  1
  H  H412  1  1.435700  0.066800  0.514400  1
  H  H413  1  1.314600  0.407400  0.744700  1
  H  H414  1  1.400400  0.442100  0.746000  1
  H  H415  1  1.339600  0.406100  0.653200  1
  H  H416  1  1.479600  0.392600  0.862500  1
  H  H417  1  1.470800  0.311300  0.884500  1
  H  H418  1  1.528100  0.334100  0.825700  1
  H  H419  1  1.191000  0.257900  0.400700  1
  H  H420  1  1.144900  0.312600  0.320200  1
  H  H421  1  1.229500  0.275600  0.321600  1
  H  H422  1  1.202300  0.427200  0.313500  1
  H  H423  1  1.283800  0.452900  0.395400  1
  H  H424  1  1.291900  0.397700  0.320200  1
  I  I425  1  1.077200  -0.200400  0.136400  1
  I  I426  1  0.929590  0.631250  0.129220  1
  I  I427  1  0.922800  -0.700400  0.363600  1
  I  I428  1  1.070410  0.131250  0.370780  1
  I  I429  1  0.922800  0.200400  -0.136400  1
  I  I430  1  1.070410  -0.631250  -0.129220  1
  I  I431  1  1.077200  0.700400  0.636400  1
  I  I432  1  0.929590  -0.131250  0.629220  1
  S  S433  1  0.956500  -0.064900  0.135200  1
  S  S434  1  1.052200  0.499100  0.126600  1
  S  S435  1  1.043500  -0.564900  0.364800  1
  S  S436  1  0.947800  -0.000900  0.373400  1
  S  S437  1  1.043500  0.064900  -0.135200  1
  S  S438  1  0.947800  -0.499100  -0.126600  1
  S  S439  1  0.956500  0.564900  0.635200  1
  S  S440  1  1.052200  0.000900  0.626600  1
  Si  Si441  1  0.661700  0.188000  0.121400  1.0
  Si  Si442  1  1.331670  0.235500  0.074700  1
  Si  Si443  1  1.338300  -0.312000  0.378600  1.0
  Si  Si444  1  0.668330  -0.264500  0.425300  1
  Si  Si445  1  1.338300  -0.188000  -0.121400  1.0
  Si  Si446  1  0.668330  -0.235500  -0.074700  1
  Si  Si447  1  0.661700  0.312000  0.621400  1.0
  Si  Si448  1  1.331670  0.264500  0.574700  1
