# generated using pymatgen
data_SiH33(C13O)2
_symmetry_space_group_name_H-M   'P 1'
_cell_length_a   8.70880000
_cell_length_b   10.88460000
_cell_length_c   13.10290000
_cell_angle_alpha   103.37330000
_cell_angle_beta   105.26050000
_cell_angle_gamma   96.81420000
_symmetry_Int_Tables_number   1
_chemical_formula_structural   SiH33(C13O)2
_chemical_formula_sum   'Si2 H66 C52 O4'
_cell_volume   1144.23526156
_cell_formula_units_Z   2
loop_
 _symmetry_equiv_pos_site_id
 _symmetry_equiv_pos_as_xyz
  1  'x, y, z'
loop_
 _atom_site_type_symbol
 _atom_site_label
 _atom_site_symmetry_multiplicity
 _atom_site_fract_x
 _atom_site_fract_y
 _atom_site_fract_z
 _atom_site_occupancy
  C  C1  1  0.878000  0.229900  0.799500  1
  C  C2  1  0.876600  0.249100  0.573200  1
  C  C3  1  0.964000  0.497100  0.782900  1
  C  C4  1  0.598800  0.332000  0.680300  1
  C  C5  1  0.911800  0.163700  0.861400  1
  C  C6  1  0.820500  0.102500  0.540500  1
  C  C7  1  1.061700  0.272300  0.591900  1
  C  C8  1  0.799700  0.300700  0.475900  1
  C  C9  1  1.139200  0.484300  0.837300  1
  C  C10  1  0.970300  0.587300  0.708200  1
  C  C11  1  0.900300  0.562900  0.876600  1
  C  C12  1  0.544900  0.441400  0.632200  1
  C  C13  1  0.554300  0.343700  0.788200  1
  C  C14  1  0.499600  0.203500  0.600300  1
  C  C15  1  0.955600  0.082400  0.932100  1
  C  C16  1  1.086200  0.017100  0.924400  1
  C  C17  1  0.869800  0.066500  1.006900  1
  C  C18  1  1.173200  0.032200  0.850400  1
  C  C19  1  1.130200  -0.066500  0.993100  1
  C  C20  1  0.913800  -0.017100  1.075600  1
  C  C21  1  0.740700  0.130900  1.017600  1
  C  C22  1  1.300300  -0.031600  0.841100  1
  C  C23  1  1.044400  -0.082400  1.067900  1
  C  C24  1  1.259300  -0.130900  0.982400  1
  C  C25  1  0.826800  -0.032200  1.149600  1
  C  C26  1  0.655600  0.116800  1.091600  1
  C  C27  1  1.386700  -0.013100  0.764400  1
  C  C28  1  1.344400  -0.116800  0.908400  1
  C  C29  1  1.088200  -0.163700  1.138600  1
  C  C30  1  0.699700  0.031600  1.158900  1
  C  C31  1  0.525600  0.185000  1.102200  1
  C  C32  1  1.506100  -0.079400  0.758900  1
  C  C33  1  1.474400  -0.185000  0.897800  1
  C  C34  1  1.122000  -0.229900  1.200500  1
  C  C35  1  0.613300  0.013100  1.235600  1
  C  C36  1  0.451100  0.164000  1.175700  1
  C  C37  1  1.548900  -0.164000  0.824300  1
  C  C38  1  0.493900  0.079400  1.241100  1
  C  C39  1  1.705900  -0.170000  0.712000  1
  C  C40  1  1.123400  -0.249100  1.426800  1
  C  C41  1  1.036000  -0.497100  1.217100  1
  C  C42  1  1.401200  -0.332000  1.319700  1
  C  C43  1  0.294100  0.170000  1.288000  1
  C  C44  1  1.179500  -0.102500  1.459500  1
  C  C45  1  0.938300  -0.272300  1.408100  1
  C  C46  1  1.200300  -0.300700  1.524100  1
  C  C47  1  0.860800  -0.484300  1.162700  1
  C  C48  1  1.029700  -0.587300  1.291800  1
  C  C49  1  1.099700  -0.562900  1.123400  1
  C  C50  1  1.455100  -0.441400  1.367800  1
  C  C51  1  1.445700  -0.343700  1.211800  1
  C  C52  1  1.500400  -0.203500  1.399700  1
  H  H53  1  0.702200  0.081700  0.522300  1
  H  H54  1  0.870300  0.068900  0.601900  1
  H  H55  1  0.853300  0.063500  0.476200  1
  H  H56  1  1.084700  0.223100  0.526800  1
  H  H57  1  1.115100  0.244400  0.656000  1
  H  H58  1  1.102500  0.364200  0.604800  1
  H  H59  1  0.829100  0.257900  0.411300  1
  H  H60  1  0.839500  0.393700  0.495000  1
  H  H61  1  0.681500  0.283500  0.459400  1
  H  H62  1  1.200600  0.567900  0.886300  1
  H  H63  1  1.190900  0.455700  0.780200  1
  H  H64  1  1.137600  0.421300  0.879800  1
  H  H65  1  0.859800  0.594200  0.670500  1
  H  H66  1  1.023400  0.552200  0.653600  1
  H  H67  1  1.031900  0.672700  0.753100  1
  H  H68  1  0.976300  0.642700  0.921300  1
  H  H69  1  0.890100  0.505100  0.922800  1
  H  H70  1  0.794000  0.582700  0.845300  1
  H  H71  1  0.575300  0.436500  0.564700  1
  H  H72  1  0.598100  0.524400  0.685900  1
  H  H73  1  0.427000  0.433000  0.615400  1
  H  H74  1  0.436900  0.337500  0.772800  1
  H  H75  1  0.610300  0.426900  0.840600  1
  H  H76  1  0.587600  0.274100  0.819600  1
  H  H77  1  0.385000  0.198700  0.596500  1
  H  H78  1  0.539000  0.132300  0.626400  1
  H  H79  1  0.511400  0.197500  0.527100  1
  H  H80  1  1.144300  0.087700  0.805200  1
  H  H81  1  0.710800  0.186200  0.972300  1
  H  H82  1  1.289200  -0.186200  1.027700  1
  H  H83  1  0.855700  -0.087700  1.194800  1
  H  H84  1  1.360400  0.043400  0.719800  1
  H  H85  1  0.494300  0.242000  1.059000  1
  H  H86  1  1.505700  -0.242000  0.941000  1
  H  H87  1  0.639600  -0.043400  1.280200  1
  H  H88  1  1.821100  -0.128000  0.732200  1
  H  H89  1  1.682100  -0.242700  0.645200  1
  H  H90  1  0.178900  0.128000  1.267800  1
  H  H91  1  0.317900  0.242700  1.354800  1
  H  H92  1  1.297800  -0.081700  1.477700  1
  H  H93  1  1.129700  -0.068900  1.398100  1
  H  H94  1  1.146700  -0.063500  1.523800  1
  H  H95  1  0.915300  -0.223100  1.473200  1
  H  H96  1  0.884900  -0.244400  1.344000  1
  H  H97  1  0.897500  -0.364200  1.395200  1
  H  H98  1  1.170900  -0.257900  1.588700  1
  H  H99  1  1.160500  -0.393700  1.505000  1
  H  H100  1  1.318500  -0.283500  1.540600  1
  H  H101  1  0.799400  -0.567900  1.113700  1
  H  H102  1  0.809100  -0.455700  1.219800  1
  H  H103  1  0.862400  -0.421300  1.120200  1
  H  H104  1  1.140200  -0.594200  1.329500  1
  H  H105  1  0.976600  -0.552200  1.346400  1
  H  H106  1  0.968100  -0.672700  1.246900  1
  H  H107  1  1.023700  -0.642700  1.078700  1
  H  H108  1  1.109900  -0.505100  1.077200  1
  H  H109  1  1.206000  -0.582700  1.154700  1
  H  H110  1  1.424700  -0.436500  1.435300  1
  H  H111  1  1.401900  -0.524400  1.314100  1
  H  H112  1  1.573000  -0.433000  1.384600  1
  H  H113  1  1.563100  -0.337500  1.227200  1
  H  H114  1  1.389700  -0.426900  1.159400  1
  H  H115  1  1.412400  -0.274100  1.180400  1
  H  H116  1  1.615000  -0.198700  1.403500  1
  H  H117  1  1.461000  -0.132300  1.373600  1
  H  H118  1  1.488600  -0.197500  1.472900  1
  O  O119  1  1.603300  -0.079780  0.691310  1
  O  O120  1  0.323800  0.215690  1.199810  1
  O  O121  1  1.676200  -0.215690  0.800190  1
  O  O122  1  0.396700  0.079780  1.308690  1
  Si  Si123  1  0.827930  0.331830  0.705140  1.0
  Si  Si124  1  1.172070  -0.331830  1.294860  1
