# generated using pymatgen
data_SiH23(C11F2)2
_symmetry_space_group_name_H-M   'P 1'
_cell_length_a   7.14110000
_cell_length_b   8.30110000
_cell_length_c   17.93350000
_cell_angle_alpha   87.36990000
_cell_angle_beta   82.47970000
_cell_angle_gamma   66.98380000
_symmetry_Int_Tables_number   1
_chemical_formula_structural   SiH23(C11F2)2
_chemical_formula_sum   'Si2 H46 C44 F8'
_cell_volume   970.02014897
_cell_formula_units_Z   2
loop_
 _symmetry_equiv_pos_site_id
 _symmetry_equiv_pos_as_xyz
  1  'x, y, z'
loop_
 _atom_site_type_symbol
 _atom_site_label
 _atom_site_symmetry_multiplicity
 _atom_site_fract_x
 _atom_site_fract_y
 _atom_site_fract_z
 _atom_site_occupancy
  C  C1  1  0.614900  0.677900  0.291600  1
  C  C2  1  0.622500  0.987200  0.196200  1
  C  C3  1  0.428000  0.744000  0.146700  1
  C  C4  1  0.894600  0.603200  0.146500  1
  C  C5  1  0.590200  0.625500  0.354500  1
  C  C6  1  0.446000  1.101600  0.253100  1
  C  C7  1  0.445400  0.782700  0.062900  1
  C  C8  1  0.912000  0.414000  0.147100  1
  C  C9  1  0.549500  0.563400  0.428400  1
  C  C10  1  0.420000  1.294500  0.251000  1
  C  C11  1  0.276000  0.772400  0.023200  1
  C  C12  1  1.092500  0.297000  0.093700  1
  C  C13  1  0.629100  0.380700  0.442360  1
  C  C14  1  0.424700  0.682600  0.485370  1
  C  C15  1  0.759200  0.259700  0.387100  1
  C  C16  1  0.575300  0.317400  0.514630  1
  C  C17  1  0.370900  0.619300  0.557640  1
  C  C18  1  0.347800  0.866700  0.473100  1
  C  C19  1  0.833300  0.081300  0.398900  1
  C  C20  1  0.450500  0.436600  0.571600  1
  C  C21  1  0.652200  0.133300  0.526900  1
  C  C22  1  0.240800  0.740300  0.612900  1
  C  C23  1  0.224700  0.984600  0.529000  1
  C  C24  1  0.964000  -0.043700  0.343400  1
  C  C25  1  0.775300  0.015400  0.471000  1
  C  C26  1  0.409800  0.374500  0.645500  1
  C  C27  1  0.166700  0.918700  0.601100  1
  C  C28  1  0.148700  1.171400  0.519000  1
  C  C29  1  1.028500  -0.217500  0.355200  1
  C  C30  1  0.851300  -0.171400  0.481000  1
  C  C31  1  0.385100  0.322100  0.708400  1
  C  C32  1  0.036000  1.043700  0.656600  1
  C  C33  1  0.028900  1.281000  0.574000  1
  C  C34  1  0.971100  -0.281000  0.426000  1
  C  C35  1  -0.028500  1.217500  0.644800  1
  C  C36  1  0.377500  0.012800  0.803800  1
  C  C37  1  0.572000  0.256000  0.853300  1
  C  C38  1  0.105400  0.396800  0.853500  1
  C  C39  1  0.554000  -0.101600  0.746900  1
  C  C40  1  0.554600  0.217300  0.937100  1
  C  C41  1  0.088000  0.586000  0.852900  1
  C  C42  1  0.580000  -0.294500  0.749000  1
  C  C43  1  0.724000  0.227600  0.976800  1
  C  C44  1  -0.092500  0.703000  0.906300  1
  F  F45  1  1.005600  0.029700  0.277900  1
  F  F46  1  0.213300  1.218800  0.450400  1
  F  F47  1  1.130100  -0.321600  0.302500  1
  F  F48  1  0.786700  -0.218800  0.549600  1
  F  F49  1  -0.005600  0.970300  0.722100  1
  F  F50  1  -0.029700  1.443900  0.564100  1
  F  F51  1  1.029700  -0.443900  0.435900  1
  F  F52  1  -0.130100  1.321600  0.697500  1
  H  H53  1  0.753100  0.987700  0.209000  1
  H  H54  1  0.602200  1.037900  0.145400  1
  H  H55  1  0.425500  0.625900  0.153900  1
  H  H56  1  0.296100  0.829300  0.171300  1
  H  H57  1  0.912000  0.641300  0.093900  1
  H  H58  1  1.006000  0.610200  0.172100  1
  H  H59  1  0.471600  1.055500  0.304300  1
  H  H60  1  0.317000  1.094100  0.242500  1
  H  H61  1  0.445900  0.901500  0.055900  1
  H  H62  1  0.578600  0.698700  0.038700  1
  H  H63  1  0.926800  0.367500  0.198700  1
  H  H64  1  0.784000  0.411300  0.132700  1
  H  H65  1  0.547500  1.303400  0.228200  1
  H  H66  1  0.385200  1.341700  0.302400  1
  H  H67  1  0.308900  1.361600  0.221200  1
  H  H68  1  0.256800  0.663900  0.037300  1
  H  H69  1  0.313200  0.773600  -0.031400  1
  H  H70  1  0.148300  0.873000  0.037900  1
  H  H71  1  1.056400  0.313400  0.042200  1
  H  H72  1  1.126600  0.174200  0.108100  1
  H  H73  1  1.211100  0.327100  0.096200  1
  H  H74  1  0.797500  0.302200  0.339900  1
  H  H75  1  0.381600  0.909700  0.425500  1
  H  H76  1  0.618400  0.090300  0.574500  1
  H  H77  1  0.202500  0.697800  0.660100  1
  H  H78  1  0.246900  0.012300  0.791000  1
  H  H79  1  0.397800  -0.037900  0.854600  1
  H  H80  1  0.574500  0.374100  0.846100  1
  H  H81  1  0.703900  0.170700  0.828700  1
  H  H82  1  0.088000  0.358700  0.906100  1
  H  H83  1  -0.006000  0.389800  0.827900  1
  H  H84  1  0.528400  -0.055500  0.695700  1
  H  H85  1  0.683000  -0.094100  0.757500  1
  H  H86  1  0.554100  0.098500  0.944100  1
  H  H87  1  0.421400  0.301300  0.961300  1
  H  H88  1  0.073200  0.632500  0.801300  1
  H  H89  1  0.216000  0.588700  0.867300  1
  H  H90  1  0.452500  -0.303400  0.771800  1
  H  H91  1  0.614800  -0.341700  0.697600  1
  H  H92  1  0.691100  -0.361600  0.778800  1
  H  H93  1  0.743200  0.336100  0.962700  1
  H  H94  1  0.686800  0.226400  1.031400  1
  H  H95  1  0.851700  0.127000  0.962100  1
  H  H96  1  -0.056400  0.686600  0.957800  1
  H  H97  1  -0.126600  0.825800  0.891900  1
  H  H98  1  -0.211100  0.672900  0.903800  1
  Si  Si99  1  0.641950  0.753980  0.194570  1.0
  Si  Si100  1  0.358050  0.246020  0.805430  1
