# generated using pymatgen
data_SiH24(C10F)2
_symmetry_space_group_name_H-M   'P 1'
_cell_length_a   7.58360000
_cell_length_b   14.21170000
_cell_length_c   17.67470000
_cell_angle_alpha   70.72000000
_cell_angle_beta   81.72560000
_cell_angle_gamma   83.17500000
_symmetry_Int_Tables_number   1
_chemical_formula_structural   SiH24(C10F)2
_chemical_formula_sum   'Si4 H96 C80 F8'
_cell_volume   1774.16000240
_cell_formula_units_Z   4
loop_
 _symmetry_equiv_pos_site_id
 _symmetry_equiv_pos_as_xyz
  1  'x, y, z'
loop_
 _atom_site_type_symbol
 _atom_site_label
 _atom_site_symmetry_multiplicity
 _atom_site_fract_x
 _atom_site_fract_y
 _atom_site_fract_z
 _atom_site_occupancy
  C  C1  1  0.397360  0.628930  0.715080  1
  C  C2  1  0.019350  0.588830  0.794150  1
  C  C3  1  0.347000  0.486050  0.878940  1
  C  C4  1  0.245470  0.727310  0.837350  1
  C  C5  1  0.501190  0.645710  0.654360  1
  C  C6  1  -0.064500  0.680600  0.732720  1
  C  C7  1  0.020900  0.496320  0.767570  1
  C  C8  1  0.231700  0.444600  0.959360  1
  C  C9  1  0.540900  0.491000  0.887200  1
  C  C10  1  0.115700  0.727580  0.912130  1
  C  C11  1  0.429700  0.756520  0.844780  1
  C  C12  1  0.619530  0.674390  0.581130  1
  C  C13  1  0.667880  0.775040  0.550250  1
  C  C14  1  0.685500  0.605630  0.540210  1
  C  C15  1  0.609220  0.843850  0.592280  1
  C  C16  1  0.778160  0.807730  0.474470  1
  C  C17  1  0.792490  0.638820  0.463520  1
  C  C18  1  0.649170  0.502890  0.572840  1
  C  C19  1  0.657790  0.941560  0.562330  1
  C  C20  1  0.825110  0.907190  0.444390  1
  C  C21  1  0.836140  0.738880  0.431040  1
  C  C22  1  0.852250  0.567470  0.422270  1
  C  C23  1  0.712410  0.436920  0.532630  1
  C  C24  1  0.599480  1.012580  0.603650  1
  C  C25  1  0.768340  0.974070  0.486720  1
  C  C26  1  0.939440  0.773760  0.353870  1
  C  C27  1  0.813540  0.470550  0.455380  1
  C  C28  1  0.648180  1.107380  0.573840  1
  C  C29  1  0.815770  1.074820  0.457740  1
  C  C30  1  1.024340  0.807400  0.288870  1
  C  C31  1  0.759070  1.138960  0.499770  1
  C  C32  1  0.979240  0.886310  0.112190  1
  C  C33  1  1.321770  0.759170  0.172860  1
  C  C34  1  1.250990  0.976470  0.182120  1
  C  C35  1  0.916000  0.788960  0.109230  1
  C  C36  1  0.818900  0.956830  0.128290  1
  C  C37  1  1.422100  0.789980  0.087440  1
  C  C38  1  1.452400  0.727950  0.237300  1
  C  C39  1  1.286600  1.045920  0.095160  1
  C  C40  1  1.144100  1.035630  0.234580  1
  C  C41  1  0.602640  1.371070  0.284920  1
  C  C42  1  0.980650  1.411170  0.205850  1
  C  C43  1  0.653000  1.513950  0.121060  1
  C  C44  1  0.754530  1.272690  0.162650  1
  C  C45  1  0.498810  1.354290  0.345640  1
  C  C46  1  1.064500  1.319400  0.267280  1
  C  C47  1  0.979100  1.503680  0.232430  1
  C  C48  1  0.768300  1.555400  0.040640  1
  C  C49  1  0.459100  1.509000  0.112800  1
  C  C50  1  0.884300  1.272420  0.087870  1
  C  C51  1  0.570300  1.243480  0.155220  1
  C  C52  1  0.380470  1.325610  0.418870  1
  C  C53  1  0.332120  1.224960  0.449750  1
  C  C54  1  0.314500  1.394370  0.459790  1
  C  C55  1  0.390780  1.156150  0.407720  1
  C  C56  1  0.221840  1.192270  0.525530  1
  C  C57  1  0.207510  1.361180  0.536480  1
  C  C58  1  0.350830  1.497110  0.427160  1
  C  C59  1  0.342210  1.058440  0.437670  1
  C  C60  1  0.174890  1.092810  0.555610  1
  C  C61  1  0.163860  1.261120  0.568960  1
  C  C62  1  0.147750  1.432530  0.577730  1
  C  C63  1  0.287590  1.563080  0.467370  1
  C  C64  1  0.400520  0.987420  0.396350  1
  C  C65  1  0.231660  1.025930  0.513280  1
  C  C66  1  0.060560  1.226240  0.646130  1
  C  C67  1  0.186460  1.529450  0.544620  1
  C  C68  1  0.351820  0.892620  0.426160  1
  C  C69  1  0.184230  0.925180  0.542260  1
  C  C70  1  -0.024340  1.192600  0.711130  1
  C  C71  1  0.240930  0.861040  0.500230  1
  C  C72  1  0.020760  1.113690  0.887810  1
  C  C73  1  -0.321770  1.240830  0.827140  1
  C  C74  1  -0.250990  1.023530  0.817880  1
  C  C75  1  0.084000  1.211040  0.890770  1
  C  C76  1  0.181100  1.043170  0.871710  1
  C  C77  1  -0.422100  1.210020  0.912560  1
  C  C78  1  -0.452400  1.272050  0.762700  1
  C  C79  1  -0.286600  0.954080  0.904840  1
  C  C80  1  -0.144100  0.964370  0.765420  1
  F  F81  1  0.492640  0.983740  0.673710  1
  F  F82  1  0.592880  1.174320  0.612650  1
  F  F83  1  0.919820  1.105700  0.387580  1
  F  F84  1  0.804880  1.233720  0.473100  1
  F  F85  1  0.507360  1.016260  0.326290  1
  F  F86  1  0.407120  0.825680  0.387350  1
  F  F87  1  0.080180  0.894300  0.612420  1
  F  F88  1  0.195120  0.766280  0.526900  1
  H  H89  1  -0.057900  0.577000  0.846800  1
  H  H90  1  0.346800  0.436500  0.849800  1
  H  H91  1  0.197800  0.782300  0.791300  1
  H  H92  1  0.008300  0.693700  0.680300  1
  H  H93  1  -0.069900  0.738800  0.751300  1
  H  H94  1  -0.185600  0.668000  0.727300  1
  H  H95  1  -0.098300  0.491500  0.754500  1
  H  H96  1  0.054200  0.436300  0.811400  1
  H  H97  1  0.107800  0.502100  0.719800  1
  H  H98  1  0.287800  0.380500  0.990700  1
  H  H99  1  0.112700  0.434700  0.949100  1
  H  H100  1  0.220800  0.492000  0.989700  1
  H  H101  1  0.550200  0.539300  0.914900  1
  H  H102  1  0.608300  0.512000  0.833500  1
  H  H103  1  0.589900  0.424900  0.918500  1
  H  H104  1  0.156300  0.674800  0.959400  1
  H  H105  1  -0.003900  0.715500  0.904300  1
  H  H106  1  0.111700  0.792600  0.920600  1
  H  H107  1  0.418900  0.825300  0.846400  1
  H  H108  1  0.513500  0.751800  0.798200  1
  H  H109  1  0.474200  0.711100  0.894500  1
  H  H110  1  0.535100  0.822900  0.642000  1
  H  H111  1  0.579400  0.480100  0.623600  1
  H  H112  1  0.897100  0.929100  0.394100  1
  H  H113  1  0.920100  0.588300  0.370900  1
  H  H114  1  0.689300  0.368400  0.556000  1
  H  H115  1  0.854200  0.424600  0.426800  1
  H  H116  1  1.041700  0.920500  0.057800  1
  H  H117  1  1.257900  0.698900  0.179100  1
  H  H118  1  1.369800  0.954500  0.203100  1
  H  H119  1  0.858800  0.752100  0.162500  1
  H  H120  1  1.018800  0.747900  0.093700  1
  H  H121  1  0.830000  0.804800  0.069500  1
  H  H122  1  0.735000  0.967200  0.088400  1
  H  H123  1  0.860800  1.021200  0.124100  1
  H  H124  1  0.758600  0.927000  0.182600  1
  H  H125  1  1.488200  0.848400  0.079400  1
  H  H126  1  1.336200  0.806700  0.047600  1
  H  H127  1  1.505900  0.734500  0.080800  1
  H  H128  1  1.534000  0.671800  0.230300  1
  H  H129  1  1.385100  0.707600  0.291100  1
  H  H130  1  1.521300  0.784500  0.231600  1
  H  H131  1  1.172800  1.069700  0.072400  1
  H  H132  1  1.362000  1.009300  0.062700  1
  H  H133  1  1.347600  1.103200  0.094800  1
  H  H134  1  1.208100  1.093500  0.230400  1
  H  H135  1  1.129800  0.992500  0.290900  1
  H  H136  1  1.026100  1.058700  0.215900  1
  H  H137  1  1.057900  1.423000  0.153200  1
  H  H138  1  0.653200  1.563500  0.150200  1
  H  H139  1  0.802200  1.217700  0.208700  1
  H  H140  1  0.991700  1.306300  0.319700  1
  H  H141  1  1.069900  1.261200  0.248700  1
  H  H142  1  1.185600  1.332000  0.272700  1
  H  H143  1  1.098300  1.508500  0.245500  1
  H  H144  1  0.945800  1.563700  0.188600  1
  H  H145  1  0.892200  1.497900  0.280200  1
  H  H146  1  0.712200  1.619500  0.009300  1
  H  H147  1  0.887300  1.565300  0.050900  1
  H  H148  1  0.779200  1.508000  0.010300  1
  H  H149  1  0.449800  1.460700  0.085100  1
  H  H150  1  0.391700  1.488000  0.166500  1
  H  H151  1  0.410100  1.575100  0.081500  1
  H  H152  1  0.843700  1.325200  0.040600  1
  H  H153  1  1.003900  1.284500  0.095700  1
  H  H154  1  0.888300  1.207400  0.079400  1
  H  H155  1  0.581100  1.174700  0.153600  1
  H  H156  1  0.486500  1.248200  0.201800  1
  H  H157  1  0.525800  1.288900  0.105500  1
  H  H158  1  0.464900  1.177100  0.358000  1
  H  H159  1  0.420600  1.519900  0.376400  1
  H  H160  1  0.102900  1.070900  0.605900  1
  H  H161  1  0.079900  1.411700  0.629100  1
  H  H162  1  0.310700  1.631600  0.444000  1
  H  H163  1  0.145800  1.575400  0.573200  1
  H  H164  1  -0.041700  1.079500  0.942200  1
  H  H165  1  -0.257900  1.301100  0.820900  1
  H  H166  1  -0.369800  1.045500  0.796900  1
  H  H167  1  0.141200  1.247900  0.837500  1
  H  H168  1  -0.018800  1.252100  0.906300  1
  H  H169  1  0.170000  1.195200  0.930500  1
  H  H170  1  0.265000  1.032800  0.911600  1
  H  H171  1  0.139200  0.978800  0.875900  1
  H  H172  1  0.241400  1.073000  0.817400  1
  H  H173  1  -0.488200  1.151600  0.920600  1
  H  H174  1  -0.336200  1.193300  0.952400  1
  H  H175  1  -0.505900  1.265500  0.919200  1
  H  H176  1  -0.534000  1.328200  0.769700  1
  H  H177  1  -0.385100  1.292400  0.708900  1
  H  H178  1  -0.521300  1.215500  0.768400  1
  H  H179  1  -0.172800  0.930300  0.927600  1
  H  H180  1  -0.362000  0.990700  0.937300  1
  H  H181  1  -0.347600  0.896800  0.905200  1
  H  H182  1  -0.208100  0.906500  0.769600  1
  H  H183  1  -0.129800  1.007500  0.709100  1
  H  H184  1  -0.026100  0.941300  0.784100  1
  Si  Si185  1  0.250230  0.608640  0.810770  1.0
  Si  Si186  1  1.146370  0.859350  0.187710  1
  Si  Si187  1  0.749770  1.391360  0.189230  1.0
  Si  Si188  1  -0.146370  1.140650  0.812290  1
