# generated using pymatgen
data_SiH20C20N
_symmetry_space_group_name_H-M   'P 1'
_cell_length_a   6.93990000
_cell_length_b   10.32280000
_cell_length_c   11.50660000
_cell_angle_alpha   81.86000000
_cell_angle_beta   89.82490000
_cell_angle_gamma   82.12710000
_symmetry_Int_Tables_number   1
_chemical_formula_structural   SiH20C20N
_chemical_formula_sum   'Si2 H40 C40 N2'
_cell_volume   808.21488608
_cell_formula_units_Z   2
loop_
 _symmetry_equiv_pos_site_id
 _symmetry_equiv_pos_as_xyz
  1  'x, y, z'
loop_
 _atom_site_type_symbol
 _atom_site_label
 _atom_site_symmetry_multiplicity
 _atom_site_fract_x
 _atom_site_fract_y
 _atom_site_fract_z
 _atom_site_occupancy
  C  C1  1  0.354600  0.700750  0.774410  1
  C  C2  1  0.035800  0.702800  0.946460  1
  C  C3  1  0.422700  0.791150  1.012730  1
  C  C4  1  0.160900  0.963900  0.824200  1
  C  C5  1  0.404400  0.641990  0.692870  1
  C  C6  1  -0.117600  0.704100  0.850400  1
  C  C7  1  0.506900  0.657500  1.079000  1
  C  C8  1  0.319600  1.037400  0.769700  1
  C  C9  1  0.453900  0.570830  0.596550  1
  C  C10  1  0.615600  0.597510  0.525520  1
  C  C11  1  0.337800  0.474630  0.572140  1
  C  C12  1  0.732700  0.692720  0.547920  1
  C  C13  1  0.662200  0.525370  0.427860  1
  C  C14  1  0.384400  0.402490  0.474480  1
  C  C15  1  0.175100  0.448150  0.640430  1
  C  C16  1  0.894200  0.716420  0.480460  1
  C  C17  1  0.546100  0.429170  0.403450  1
  C  C18  1  0.824900  0.551850  0.359570  1
  C  C19  1  0.267300  0.307280  0.452080  1
  C  C20  1  0.058300  0.356370  0.616000  1
  C  C21  1  1.017400  0.810060  0.504770  1
  C  C22  1  0.941700  0.643630  0.384000  1
  C  C23  1  0.595600  0.358010  0.307130  1
  C  C24  1  0.105800  0.283580  0.519540  1
  C  C25  1  -0.109400  0.331760  0.684450  1
  C  C26  1  1.177300  0.829370  0.437700  1
  C  C27  1  1.109400  0.668240  0.315550  1
  C  C28  1  0.645400  0.299250  0.225590  1
  C  C29  1  -0.017400  0.189940  0.495230  1
  C  C30  1  -0.223600  0.242200  0.658400  1
  C  C31  1  1.307300  0.909900  0.465300  1
  C  C32  1  1.223600  0.757800  0.341600  1
  C  C33  1  -0.177300  0.170630  0.562300  1
  C  C34  1  0.964200  0.297200  0.053540  1
  C  C35  1  0.577300  0.208850  -0.012730  1
  C  C36  1  0.839100  0.036100  0.175800  1
  C  C37  1  -0.307300  0.090100  0.534700  1
  C  C38  1  1.117600  0.295900  0.149600  1
  C  C39  1  0.493100  0.342500  -0.079000  1
  C  C40  1  0.680400  -0.037400  0.230300  1
  H  H41  1  0.085300  0.610100  0.978300  1
  H  H42  1  -0.026300  0.745900  1.011400  1
  H  H43  1  0.531900  0.836000  0.979300  1
  H  H44  1  0.357800  0.845200  1.069900  1
  H  H45  1  0.061100  0.963100  0.763100  1
  H  H46  1  0.098000  1.012600  0.885500  1
  H  H47  1  -0.177700  0.795200  0.824600  1
  H  H48  1  -0.217700  0.651000  0.881600  1
  H  H49  1  -0.055300  0.667100  0.783500  1
  H  H50  1  0.400800  0.610900  1.112000  1
  H  H51  1  0.592800  0.670300  1.142600  1
  H  H52  1  0.581300  0.605100  1.025100  1
  H  H53  1  0.418700  1.039800  0.829500  1
  H  H54  1  0.264100  1.127800  0.737700  1
  H  H55  1  0.379300  0.992300  0.706400  1
  H  H56  1  0.700600  0.742000  0.610700  1
  H  H57  1  0.144500  0.494600  0.705200  1
  H  H58  1  0.855500  0.505400  0.294800  1
  H  H59  1  0.299400  0.258000  0.389300  1
  H  H60  1  0.988200  0.859200  0.567900  1
  H  H61  1  -0.141200  0.378600  0.748800  1
  H  H62  1  1.141200  0.621400  0.251200  1
  H  H63  1  0.011800  0.140800  0.432100  1
  H  H64  1  -0.334600  0.227300  0.704300  1
  H  H65  1  1.334600  0.772700  0.295700  1
  H  H66  1  0.914700  0.389900  0.021700  1
  H  H67  1  1.026300  0.254100  -0.011400  1
  H  H68  1  0.468100  0.164000  0.020700  1
  H  H69  1  0.642200  0.154800  -0.069900  1
  H  H70  1  0.938900  0.036900  0.236900  1
  H  H71  1  0.902000  -0.012600  0.114500  1
  H  H72  1  1.177700  0.204800  0.175400  1
  H  H73  1  1.217700  0.349000  0.118400  1
  H  H74  1  1.055300  0.332900  0.216500  1
  H  H75  1  0.599200  0.389100  -0.112000  1
  H  H76  1  0.407200  0.329700  -0.142600  1
  H  H77  1  0.418700  0.394900  -0.025100  1
  H  H78  1  0.581300  -0.039800  0.170500  1
  H  H79  1  0.735900  -0.127800  0.262300  1
  H  H80  1  0.620700  0.007700  0.293600  1
  N  N81  1  1.415200  0.979100  0.486300  1
  N  N82  1  1.584800  1.020900  0.513700  1
  Si  Si83  1  0.245250  0.789720  0.891460  1.0
  Si  Si84  1  0.754750  0.210280  0.108540  1
