# generated using pymatgen
data_GeH18C17SF
_symmetry_space_group_name_H-M   'P 1'
_cell_length_a   8.54770000
_cell_length_b   11.70190000
_cell_length_c   15.55140000
_cell_angle_alpha   88.37400000
_cell_angle_beta   89.43300000
_cell_angle_gamma   89.98800000
_symmetry_Int_Tables_number   1
_chemical_formula_structural   GeH18C17SF
_chemical_formula_sum   'Ge4 H72 C68 S4 F4'
_cell_volume   1554.81589342
_cell_formula_units_Z   4
loop_
 _symmetry_equiv_pos_site_id
 _symmetry_equiv_pos_as_xyz
  1  'x, y, z'
loop_
 _atom_site_type_symbol
 _atom_site_label
 _atom_site_symmetry_multiplicity
 _atom_site_fract_x
 _atom_site_fract_y
 _atom_site_fract_z
 _atom_site_occupancy
  C  C1  1  0.156800  0.879910  0.724370  1
  C  C2  1  -0.072500  1.033630  0.827420  1
  C  C3  1  0.019400  0.778200  0.894200  1
  C  C4  1  0.279800  0.977370  0.896590  1
  C  C5  1  0.187600  0.845190  0.654220  1
  C  C6  1  -0.188800  1.006610  0.757350  1
  C  C7  1  -0.084600  0.797760  0.972680  1
  C  C8  1  0.430600  0.918280  0.868520  1
  C  C9  1  0.223800  0.799180  0.572070  1
  C  C10  1  0.370700  0.746340  0.558950  1
  C  C11  1  0.110500  0.803100  0.506320  1
  C  C12  1  0.486100  0.745720  0.624320  1
  C  C13  1  0.403500  0.692230  0.478940  1
  C  C14  1  0.143000  0.749990  0.425730  1
  C  C15  1  -0.035300  0.858870  0.518910  1
  C  C16  1  0.624400  0.690700  0.610710  1
  C  C17  1  0.548600  0.634540  0.468090  1
  C  C18  1  0.289900  0.696370  0.412770  1
  C  C19  1  0.026500  0.752120  0.360650  1
  C  C20  1  -0.145000  0.861380  0.455350  1
  C  C21  1  0.656700  0.632050  0.532440  1
  C  C22  1  0.325900  0.646950  0.331760  1
  C  C23  1  -0.112500  0.805620  0.375900  1
  C  C24  1  -0.298500  0.913200  0.456000  1
  C  C25  1  0.808000  0.576100  0.535400  1
  C  C26  1  0.879500  0.595150  0.609030  1
  C  C27  1  0.359500  0.606730  0.263410  1
  C  C28  1  -0.370800  0.897680  0.382190  1
  C  C29  1  0.234700  0.501480  0.092820  1
  C  C30  1  0.521300  0.679670  0.091790  1
  C  C31  1  0.569800  0.425970  0.171060  1
  C  C32  1  0.082100  0.552700  0.124430  1
  C  C33  1  0.414800  0.783490  0.082710  1
  C  C34  1  0.700600  0.453490  0.233670  1
  C  C35  1  0.843200  0.120090  0.275630  1
  C  C36  1  1.072500  -0.033630  0.172580  1
  C  C37  1  0.980600  0.221800  0.105800  1
  C  C38  1  0.720200  0.022630  0.103410  1
  C  C39  1  0.812400  0.154810  0.345780  1
  C  C40  1  1.188800  -0.006610  0.242650  1
  C  C41  1  1.084600  0.202240  0.027320  1
  C  C42  1  0.569400  0.081720  0.131480  1
  C  C43  1  0.776200  0.200820  0.427930  1
  C  C44  1  0.629300  0.253660  0.441050  1
  C  C45  1  0.889500  0.196900  0.493680  1
  C  C46  1  0.513900  0.254280  0.375680  1
  C  C47  1  0.596500  0.307770  0.521060  1
  C  C48  1  0.857000  0.250010  0.574270  1
  C  C49  1  1.035300  0.141130  0.481090  1
  C  C50  1  0.375600  0.309300  0.389290  1
  C  C51  1  0.451400  0.365460  0.531910  1
  C  C52  1  0.710100  0.303630  0.587230  1
  C  C53  1  0.973500  0.247880  0.639350  1
  C  C54  1  1.145000  0.138620  0.544650  1
  C  C55  1  0.343300  0.367950  0.467560  1
  C  C56  1  0.674100  0.353050  0.668240  1
  C  C57  1  1.112500  0.194380  0.624100  1
  C  C58  1  1.298500  0.086800  0.544000  1
  C  C59  1  0.192000  0.423900  0.464600  1
  C  C60  1  0.120500  0.404850  0.390970  1
  C  C61  1  0.640500  0.393270  0.736590  1
  C  C62  1  1.370800  0.102320  0.617810  1
  C  C63  1  0.765300  0.498520  0.907180  1
  C  C64  1  0.478700  0.320330  0.908210  1
  C  C65  1  0.430200  0.574030  0.828940  1
  C  C66  1  0.917900  0.447300  0.875570  1
  C  C67  1  0.585200  0.216510  0.917290  1
  C  C68  1  0.299400  0.546510  0.766330  1
  F  F69  1  1.020390  0.555500  0.633030  1
  F  F70  1  -0.513460  0.936700  0.360640  1
  F  F71  1  -0.020390  0.444500  0.366970  1
  F  F72  1  1.513460  0.063300  0.639360  1
  Ge  Ge73  1  0.094950  0.920240  0.838330  1.0
  Ge  Ge74  1  0.421530  0.551200  0.153300  1
  Ge  Ge75  1  0.905050  0.079760  0.161670  1.0
  Ge  Ge76  1  0.578470  0.448800  0.846700  1
  H  H77  1  -0.129100  1.037700  0.883100  1
  H  H78  1  -0.025500  1.109600  0.814500  1
  H  H79  1  -0.040200  0.734400  0.851900  1
  H  H80  1  0.110500  0.731300  0.912000  1
  H  H81  1  0.289700  1.060600  0.884400  1
  H  H82  1  0.265600  0.965700  0.959500  1
  H  H83  1  -0.134200  1.004900  0.701700  1
  H  H84  1  -0.270200  1.065600  0.755200  1
  H  H85  1  -0.236900  0.932000  0.770100  1
  H  H86  1  -0.029100  0.845700  1.013100  1
  H  H87  1  -0.110100  0.724100  1.000900  1
  H  H88  1  -0.181200  0.836100  0.954500  1
  H  H89  1  0.420100  0.835500  0.878300  1
  H  H90  1  0.518300  0.946500  0.902100  1
  H  H91  1  0.450100  0.935000  0.807200  1
  H  H92  1  0.467000  0.783200  0.676800  1
  H  H93  1  -0.056800  0.894700  0.571800  1
  H  H94  1  0.570700  0.597500  0.415800  1
  H  H95  1  0.045500  0.716700  0.307300  1
  H  H96  1  -0.341800  0.953100  0.502900  1
  H  H97  1  0.850300  0.531700  0.490600  1
  H  H98  1  0.247700  0.521500  0.030900  1
  H  H99  1  0.227200  0.417200  0.098500  1
  H  H100  1  0.616800  0.701500  0.122800  1
  H  H101  1  0.553500  0.655400  0.033800  1
  H  H102  1  0.512300  0.357700  0.193300  1
  H  H103  1  0.617200  0.406800  0.114900  1
  H  H104  1  0.065300  0.530700  0.185100  1
  H  H105  1  -0.004700  0.524200  0.090300  1
  H  H106  1  0.087100  0.636200  0.118300  1
  H  H107  1  0.323200  0.763900  0.048700  1
  H  H108  1  0.472000  0.846400  0.053700  1
  H  H109  1  0.380600  0.807000  0.139900  1
  H  H110  1  0.757600  0.521400  0.212400  1
  H  H111  1  0.772600  0.388500  0.238300  1
  H  H112  1  0.655200  0.468200  0.290400  1
  H  H113  1  1.129100  -0.037700  0.116900  1
  H  H114  1  1.025500  -0.109600  0.185500  1
  H  H115  1  1.040200  0.265600  0.148100  1
  H  H116  1  0.889500  0.268700  0.088000  1
  H  H117  1  0.710300  -0.060600  0.115600  1
  H  H118  1  0.734400  0.034300  0.040500  1
  H  H119  1  1.134200  -0.004900  0.298300  1
  H  H120  1  1.270200  -0.065600  0.244800  1
  H  H121  1  1.236900  0.068000  0.229900  1
  H  H122  1  1.029100  0.154300  -0.013100  1
  H  H123  1  1.110100  0.275900  -0.000900  1
  H  H124  1  1.181200  0.163900  0.045500  1
  H  H125  1  0.579900  0.164500  0.121700  1
  H  H126  1  0.481700  0.053500  0.097900  1
  H  H127  1  0.549900  0.065000  0.192800  1
  H  H128  1  0.533000  0.216800  0.323200  1
  H  H129  1  1.056800  0.105300  0.428200  1
  H  H130  1  0.429300  0.402500  0.584200  1
  H  H131  1  0.954500  0.283300  0.692700  1
  H  H132  1  1.341800  0.046900  0.497100  1
  H  H133  1  0.149700  0.468300  0.509400  1
  H  H134  1  0.752300  0.478500  0.969100  1
  H  H135  1  0.772800  0.582800  0.901500  1
  H  H136  1  0.383200  0.298500  0.877200  1
  H  H137  1  0.446500  0.344600  0.966200  1
  H  H138  1  0.487700  0.642300  0.806700  1
  H  H139  1  0.382800  0.593200  0.885100  1
  H  H140  1  0.934700  0.469300  0.814900  1
  H  H141  1  1.004700  0.475800  0.909700  1
  H  H142  1  0.912900  0.363800  0.881700  1
  H  H143  1  0.676800  0.236100  0.951300  1
  H  H144  1  0.528000  0.153600  0.946300  1
  H  H145  1  0.619400  0.193000  0.860100  1
  H  H146  1  0.242400  0.478600  0.787600  1
  H  H147  1  0.227400  0.611500  0.761700  1
  H  H148  1  0.344800  0.531800  0.709600  1
  S  S149  1  0.780500  0.679260  0.682910  1
  S  S150  1  -0.271100  0.818380  0.305520  1
  S  S151  1  0.219500  0.320740  0.317090  1
  S  S152  1  1.271100  0.181620  0.694480  1
