# generated using pymatgen
data_Si4H114C105S4N4O7
_symmetry_space_group_name_H-M   'P 1'
_cell_length_a   14.77930000
_cell_length_b   17.63320000
_cell_length_c   20.40370000
_cell_angle_alpha   104.42600000
_cell_angle_beta   105.13500000
_cell_angle_gamma   105.49500000
_symmetry_Int_Tables_number   1
_chemical_formula_structural   Si4H114C105S4N4O7
_chemical_formula_sum   'Si8 H228 C210 S8 N8 O14'
_cell_volume   4646.62625252
_cell_formula_units_Z   2
loop_
 _symmetry_equiv_pos_site_id
 _symmetry_equiv_pos_as_xyz
  1  'x, y, z'
loop_
 _atom_site_type_symbol
 _atom_site_label
 _atom_site_symmetry_multiplicity
 _atom_site_fract_x
 _atom_site_fract_y
 _atom_site_fract_z
 _atom_site_occupancy
  C  C1  1  0.196500  -0.084200  0.598600  1
  C  C2  1  0.181600  -0.033400  0.468700  1
  C  C3  1  0.355700  0.076400  0.617000  1
  C  C4  1  0.140800  0.067100  0.596900  1
  C  C5  1  0.178700  -0.147500  0.613400  1
  C  C6  1  0.220300  -0.100100  0.437500  1
  C  C7  1  0.433400  0.049600  0.590300  1
  C  C8  1  0.156100  0.096600  0.676600  1
  C  C9  1  0.159000  -0.221800  0.632400  1
  C  C10  1  0.148600  -0.217800  0.699900  1
  C  C11  1  0.150600  -0.298000  0.583000  1
  C  C12  1  0.151200  -0.142600  0.748500  1
  C  C13  1  0.134900  -0.291400  0.720400  1
  C  C14  1  0.136200  -0.371800  0.603000  1
  C  C15  1  0.157000  -0.302200  0.514100  1
  C  C16  1  0.139700  -0.141900  0.812600  1
  C  C17  1  0.126900  -0.286800  0.788600  1
  C  C18  1  0.131300  -0.366700  0.671700  1
  C  C19  1  0.127100  -0.447900  0.552500  1
  C  C20  1  0.147900  -0.376800  0.467800  1
  C  C21  1  0.129000  -0.214300  0.834400  1
  C  C22  1  0.125500  -0.436800  0.696800  1
  C  C23  1  0.132400  -0.451200  0.485800  1
  C  C24  1  0.119600  -0.197600  0.904100  1
  C  C25  1  0.123200  -0.119000  0.933600  1
  C  C26  1  0.123500  -0.491700  0.722100  1
  C  C27  1  0.125000  -0.520500  0.427100  1
  C  C28  1  0.137000  -0.499300  0.369800  1
  C  C29  1  0.114100  -0.077200  1.003100  1
  C  C30  1  0.138700  -0.546400  0.299600  1
  C  C31  1  0.123100  -0.667100  0.716800  1
  C  C32  1  0.029300  -0.569500  0.815800  1
  C  C33  1  0.252600  -0.512900  0.850900  1
  C  C34  1  0.099900  -0.103600  1.115000  1
  C  C35  1  0.017300  -0.724000  0.660800  1
  C  C36  1  0.039400  -0.489400  0.868100  1
  C  C37  1  0.343000  -0.502000  0.827300  1
  C  C38  1  0.129900  -0.684800  0.225600  1
  C  C39  1  0.059800  -0.043500  1.138300  1
  C  C40  1  0.127000  -0.148900  1.158900  1
  C  C41  1  0.137500  -0.760200  0.231200  1
  C  C42  1  0.127600  -0.668200  0.161600  1
  C  C43  1  0.052400  -0.026700  1.206500  1
  C  C44  1  0.117200  -0.132600  1.226300  1
  C  C45  1  0.143000  -0.817900  0.173800  1
  C  C46  1  0.133800  -0.727500  0.105400  1
  C  C47  1  0.081300  -0.070500  1.250400  1
  C  C48  1  0.141200  -0.802300  0.110700  1
  C  C49  1  -0.196500  -0.915800  0.401400  1
  C  C50  1  -0.181600  -0.966600  0.531300  1
  C  C51  1  -0.355700  -1.076400  0.383000  1
  C  C52  1  -0.140800  -1.067100  0.403100  1
  C  C53  1  -0.178700  -0.852500  0.386600  1
  C  C54  1  -0.220300  -0.899900  0.562500  1
  C  C55  1  -0.433400  -1.049600  0.409700  1
  C  C56  1  -0.156100  -1.096600  0.323400  1
  C  C57  1  -0.159000  -0.778200  0.367600  1
  C  C58  1  -0.148600  -0.782200  0.300100  1
  C  C59  1  -0.150600  -0.702000  0.417000  1
  C  C60  1  -0.151200  -0.857400  0.251500  1
  C  C61  1  -0.134900  -0.708600  0.279600  1
  C  C62  1  -0.136200  -0.628200  0.397000  1
  C  C63  1  -0.157000  -0.697800  0.485900  1
  C  C64  1  -0.139700  -0.858100  0.187400  1
  C  C65  1  -0.126900  -0.713200  0.211400  1
  C  C66  1  -0.131300  -0.633300  0.328300  1
  C  C67  1  -0.127100  -0.552100  0.447500  1
  C  C68  1  -0.147900  -0.623200  0.532200  1
  C  C69  1  -0.129000  -0.785700  0.165600  1
  C  C70  1  -0.125500  -0.563200  0.303200  1
  C  C71  1  -0.132400  -0.548800  0.514200  1
  C  C72  1  -0.119600  -0.802400  0.095900  1
  C  C73  1  -0.123200  -0.881000  0.066400  1
  C  C74  1  -0.123500  -0.508300  0.277900  1
  C  C75  1  -0.125000  -0.479500  0.572900  1
  C  C76  1  -0.137000  -0.500700  0.630200  1
  C  C77  1  -0.114100  -0.922800  -0.003100  1
  C  C78  1  -0.138700  -0.453600  0.700400  1
  C  C79  1  -0.123100  -0.332900  0.283200  1
  C  C80  1  -0.029300  -0.430500  0.184200  1
  C  C81  1  -0.252600  -0.487100  0.149100  1
  C  C82  1  -0.099900  -0.896400  -0.115000  1
  C  C83  1  -0.017300  -0.276000  0.339200  1
  C  C84  1  -0.039400  -0.510600  0.131900  1
  C  C85  1  -0.343000  -0.498000  0.172700  1
  C  C86  1  -0.129900  -0.315200  0.774400  1
  C  C87  1  -0.059800  -0.956500  -0.138300  1
  C  C88  1  -0.127000  -0.851100  -0.158900  1
  C  C89  1  -0.137500  -0.239800  0.768800  1
  C  C90  1  -0.127600  -0.331800  0.838400  1
  C  C91  1  -0.052400  -0.973300  -0.206500  1
  C  C92  1  -0.117200  -0.867400  -0.226300  1
  C  C93  1  -0.143000  -0.182100  0.826200  1
  C  C94  1  -0.133800  -0.272500  0.894600  1
  C  C95  1  -0.081300  -0.929500  -0.250400  1
  C  C96  1  -0.141200  -0.197700  0.889300  1
  C  C97  1  0.363200  -0.241500  1.169300  1
  C  C98  1  0.472800  -0.359200  1.195000  1
  C  C99  1  0.241500  -0.420700  1.143400  1
  C  C100  1  0.365200  -0.295600  1.297500  1
  C  C101  1  0.364800  -0.182600  1.150100  1
  C  C102  1  0.571800  -0.287500  1.236000  1
  C  C103  1  0.228000  -0.447300  1.064200  1
  C  C104  1  0.291100  -0.252400  1.308800  1
  C  C105  1  0.365600  -0.112700  1.125700  1
  C  C106  1  0.365200  -0.038800  1.173400  1
  C  C107  1  0.366600  -0.118300  1.056400  1
  C  C108  1  0.363800  -0.033700  1.243100  1
  C  C109  1  0.361200  0.030600  1.149000  1
  C  C110  1  0.370400  -0.046700  1.033200  1
  C  C111  1  0.365300  -0.192200  1.008100  1
  C  C112  1  0.356300  0.035800  1.286500  1
  C  C113  1  0.354600  0.102000  1.195400  1
  C  C114  1  0.364800  0.025900  1.079400  1
  C  C115  1  0.376900  -0.050900  0.964700  1
  C  C116  1  0.371200  -0.194000  0.942400  1
  C  C117  1  0.351100  0.104300  1.262100  1
  C  C118  1  0.360100  0.092900  1.052900  1
  C  C119  1  0.378700  -0.122600  0.920000  1
  C  C120  1  0.344000  0.169500  1.316900  1
  C  C121  1  0.342100  0.150300  1.377000  1
  C  C122  1  0.352700  0.147700  1.028700  1
  C  C123  1  0.386500  -0.139800  0.849400  1
  C  C124  1  0.384700  -0.218200  0.820500  1
  C  C125  1  0.337000  0.196900  1.445300  1
  C  C126  1  0.391000  -0.262800  0.751200  1
  C  C127  1  0.195600  0.185800  0.929700  1
  C  C128  1  0.403200  0.219100  0.918700  1
  C  C129  1  0.379400  0.330600  1.051900  1
  C  C130  1  0.337700  0.335000  1.514300  1
  C  C131  1  0.166900  0.237200  0.883600  1
  C  C132  1  0.377800  0.132000  0.867100  1
  C  C133  1  0.394100  0.401500  1.021400  1
  C  C134  1  0.402900  -0.240900  0.636500  1
  C  C135  1  0.350000  0.325000  1.580900  1
  C  C136  1  0.321400  0.406800  1.505000  1
  C  C137  1  0.399400  -0.185400  0.599000  1
  C  C138  1  0.414900  -0.316200  0.605500  1
  C  C139  1  0.344000  0.385400  1.636800  1
  C  C140  1  0.316800  0.466300  1.560800  1
  C  C141  1  0.408400  -0.203900  0.531500  1
  C  C142  1  0.422200  -0.334600  0.537500  1
  C  C143  1  0.327400  0.456200  1.627400  1
  C  C144  1  0.418600  -0.278100  0.500400  1
  C  C145  1  0.636800  0.241500  0.830700  1
  C  C146  1  0.527200  0.359200  0.805000  1
  C  C147  1  0.758500  0.420700  0.856600  1
  C  C148  1  0.634800  0.295600  0.702500  1
  C  C149  1  0.635200  0.182600  0.849900  1
  C  C150  1  0.428200  0.287500  0.764000  1
  C  C151  1  0.772000  0.447300  0.935800  1
  C  C152  1  0.708900  0.252400  0.691200  1
  C  C153  1  0.634400  0.112700  0.874300  1
  C  C154  1  0.634800  0.038800  0.826600  1
  C  C155  1  0.633400  0.118300  0.943600  1
  C  C156  1  0.636200  0.033700  0.756900  1
  C  C157  1  0.638800  -0.030600  0.851000  1
  C  C158  1  0.629600  0.046700  0.966800  1
  C  C159  1  0.634700  0.192200  0.991900  1
  C  C160  1  0.643700  -0.035800  0.713500  1
  C  C161  1  0.645400  -0.102000  0.804600  1
  C  C162  1  0.635200  -0.025900  0.920600  1
  C  C163  1  0.623100  0.050900  1.035300  1
  C  C164  1  0.628800  0.194000  1.057600  1
  C  C165  1  0.648900  -0.104300  0.737900  1
  C  C166  1  0.639900  -0.092900  0.947100  1
  C  C167  1  0.621300  0.122600  1.080000  1
  C  C168  1  0.656000  -0.169500  0.683100  1
  C  C169  1  0.657900  -0.150300  0.623000  1
  C  C170  1  0.647300  -0.147700  0.971300  1
  C  C171  1  0.613500  0.139800  1.150600  1
  C  C172  1  0.615300  0.218200  1.179500  1
  C  C173  1  0.663000  -0.196900  0.554700  1
  C  C174  1  0.609000  0.262800  1.248800  1
  C  C175  1  0.804400  -0.185800  1.070300  1
  C  C176  1  0.596800  -0.219100  1.081300  1
  C  C177  1  0.620600  -0.330600  0.948100  1
  C  C178  1  0.662300  -0.335000  0.485700  1
  C  C179  1  0.833100  -0.237200  1.116400  1
  C  C180  1  0.622200  -0.132000  1.132900  1
  C  C181  1  0.605900  -0.401500  0.978600  1
  C  C182  1  0.597100  0.240900  1.363500  1
  C  C183  1  0.650000  -0.325000  0.419100  1
  C  C184  1  0.678600  -0.406800  0.495000  1
  C  C185  1  0.600600  0.185400  1.401000  1
  C  C186  1  0.585100  0.316200  1.394500  1
  C  C187  1  0.656000  -0.385400  0.363200  1
  C  C188  1  0.683200  -0.466300  0.439200  1
  C  C189  1  0.591600  0.203900  1.468500  1
  C  C190  1  0.577800  0.334600  1.462500  1
  C  C191  1  0.672600  -0.456200  0.372600  1
  C  C192  1  0.581400  0.278100  1.499600  1
  C  C193  1  0.394200  0.503600  0.347400  1
  C  C194  1  0.386900  0.414700  0.319100  1
  C  C195  1  0.401000  0.386200  0.248600  1
  C  C196  1  0.605800  0.496400  0.652600  1
  C  C197  1  0.613100  0.585300  0.680900  1
  C  C198  1  0.599000  0.613800  0.751400  1
  C  C199  1  0.080500  0.262700  0.498000  1
  C  C200  1  0.085100  0.232400  0.424700  1
  C  C201  1  0.078100  0.142600  0.397400  1
  C  C202  1  0.919500  0.737300  0.502000  1
  C  C203  1  0.914900  0.767600  0.575300  1
  C  C204  1  0.921900  0.857400  0.602600  1
  C  C205  1  0.027000  0.555000  0.968000  1
  C  C206  1  0.045000  0.645400  1.004800  1
  C  C207  1  -0.027000  0.659000  1.043000  1
  C  C208  1  0.973000  0.445000  0.032000  1
  C  C209  1  0.955000  0.354600  -0.004800  1
  C  C210  1  1.027000  0.341000  -0.043000  1
  H  H211  1  0.107400  -0.056700  0.448300  1
  H  H212  1  0.203900  0.014200  0.452100  1
  H  H213  1  0.362600  0.133000  0.614700  1
  H  H214  1  0.373100  0.081500  0.668600  1
  H  H215  1  0.153100  0.116700  0.581400  1
  H  H216  1  0.069700  0.030900  0.570000  1
  H  H217  1  0.293600  -0.076700  0.453900  1
  H  H218  1  0.192600  -0.119000  0.384600  1
  H  H219  1  0.199600  -0.147600  0.453700  1
  H  H220  1  0.426900  -0.007000  0.590700  1
  H  H221  1  0.500800  0.088600  0.622000  1
  H  H222  1  0.422400  0.050100  0.540900  1
  H  H223  1  0.143300  0.048200  0.692800  1
  H  H224  1  0.109600  0.125400  0.684600  1
  H  H225  1  0.225200  0.135200  0.704000  1
  H  H226  1  0.160900  -0.093400  0.736100  1
  H  H227  1  0.167400  -0.253800  0.500400  1
  H  H228  1  0.120000  -0.334600  0.803000  1
  H  H229  1  0.117100  -0.497100  0.565200  1
  H  H230  1  0.111600  -0.238100  0.927400  1
  H  H231  1  0.112900  -0.575700  0.428500  1
  H  H232  1  0.116800  -0.173100  1.030800  1
  H  H233  1  0.170300  -0.657300  0.690600  1
  H  H234  1  0.145800  -0.697600  0.748600  1
  H  H235  1  -0.036200  -0.590500  0.776100  1
  H  H236  1  0.028700  -0.611200  0.840500  1
  H  H237  1  0.256700  -0.457300  0.880100  1
  H  H238  1  0.255100  -0.547600  0.882200  1
  H  H239  1  0.113400  -0.649000  0.319800  1
  H  H240  1  -0.029500  -0.736800  0.686200  1
  H  H241  1  0.020700  -0.776200  0.632400  1
  H  H242  1  -0.005900  -0.694800  0.628600  1
  H  H243  1  -0.016400  -0.498800  0.886300  1
  H  H244  1  0.038200  -0.447900  0.844000  1
  H  H245  1  0.103000  -0.468700  0.908600  1
  H  H246  1  0.340400  -0.556800  0.799000  1
  H  H247  1  0.404500  -0.475900  0.870000  1
  H  H248  1  0.342500  -0.466100  0.797500  1
  H  H249  1  0.037700  -0.014200  1.107900  1
  H  H250  1  0.152400  -0.191300  1.142500  1
  H  H251  1  0.138900  -0.771900  0.274300  1
  H  H252  1  0.122000  -0.617300  0.156900  1
  H  H253  1  0.027100  0.015600  1.223200  1
  H  H254  1  0.135100  -0.164100  1.255700  1
  H  H255  1  0.148100  -0.869200  0.178000  1
  H  H256  1  0.132900  -0.716300  0.062000  1
  H  H257  1  0.076400  -0.057900  1.297200  1
  H  H258  1  0.145100  -0.842300  0.071500  1
  H  H259  1  -0.107400  -0.943300  0.551700  1
  H  H260  1  -0.203900  -1.014200  0.547900  1
  H  H261  1  -0.362600  -1.133000  0.385300  1
  H  H262  1  -0.373100  -1.081500  0.331400  1
  H  H263  1  -0.153100  -1.116700  0.418600  1
  H  H264  1  -0.069700  -1.030900  0.430000  1
  H  H265  1  -0.293600  -0.923300  0.546100  1
  H  H266  1  -0.192600  -0.881000  0.615400  1
  H  H267  1  -0.199600  -0.852400  0.546300  1
  H  H268  1  -0.426900  -0.993000  0.409300  1
  H  H269  1  -0.500800  -1.088600  0.378000  1
  H  H270  1  -0.422400  -1.050100  0.459100  1
  H  H271  1  -0.143300  -1.048200  0.307200  1
  H  H272  1  -0.109600  -1.125400  0.315400  1
  H  H273  1  -0.225200  -1.135200  0.296000  1
  H  H274  1  -0.160900  -0.906600  0.263900  1
  H  H275  1  -0.167400  -0.746200  0.499600  1
  H  H276  1  -0.120000  -0.665400  0.197000  1
  H  H277  1  -0.117100  -0.502900  0.434800  1
  H  H278  1  -0.111600  -0.761900  0.072600  1
  H  H279  1  -0.112900  -0.424300  0.571500  1
  H  H280  1  -0.116800  -0.826900  -0.030800  1
  H  H281  1  -0.170300  -0.342700  0.309400  1
  H  H282  1  -0.145800  -0.302400  0.251400  1
  H  H283  1  0.036200  -0.409500  0.223900  1
  H  H284  1  -0.028700  -0.388800  0.159500  1
  H  H285  1  -0.256700  -0.542700  0.119900  1
  H  H286  1  -0.255100  -0.452400  0.117800  1
  H  H287  1  -0.113400  -0.351000  0.680200  1
  H  H288  1  0.029500  -0.263200  0.313800  1
  H  H289  1  -0.020700  -0.223800  0.367600  1
  H  H290  1  0.005900  -0.305200  0.371400  1
  H  H291  1  0.016400  -0.501200  0.113700  1
  H  H292  1  -0.038200  -0.552100  0.156000  1
  H  H293  1  -0.103000  -0.531300  0.091400  1
  H  H294  1  -0.340400  -0.443200  0.201000  1
  H  H295  1  -0.404500  -0.524100  0.130000  1
  H  H296  1  -0.342500  -0.533900  0.202500  1
  H  H297  1  -0.037700  -0.985800  -0.107900  1
  H  H298  1  -0.152400  -0.808700  -0.142500  1
  H  H299  1  -0.138900  -0.228100  0.725700  1
  H  H300  1  -0.122000  -0.382700  0.843100  1
  H  H301  1  -0.027100  -1.015600  -0.223200  1
  H  H302  1  -0.135100  -0.835900  -0.255700  1
  H  H303  1  -0.148100  -0.130800  0.822000  1
  H  H304  1  -0.132900  -0.283700  0.938000  1
  H  H305  1  -0.076400  -0.942100  -0.297200  1
  H  H306  1  -0.145100  -0.157700  0.928500  1
  H  H307  1  0.473700  -0.405800  1.213600  1
  H  H308  1  0.465700  -0.379500  1.143400  1
  H  H309  1  0.240700  -0.469000  1.159900  1
  H  H310  1  0.184000  -0.405000  1.149500  1
  H  H311  1  0.351600  -0.344800  1.313300  1
  H  H312  1  0.433900  -0.256500  1.328500  1
  H  H313  1  0.570900  -0.240300  1.219100  1
  H  H314  1  0.626300  -0.305700  1.227800  1
  H  H315  1  0.582300  -0.270100  1.287800  1
  H  H316  1  0.283700  -0.464500  1.057300  1
  H  H317  1  0.227000  -0.400400  1.046900  1
  H  H318  1  0.164600  -0.494500  1.036800  1
  H  H319  1  0.307500  -0.200900  1.297100  1
  H  H320  1  0.295300  -0.238600  1.359400  1
  H  H321  1  0.223000  -0.290000  1.277200  1
  H  H322  1  0.368000  -0.078600  1.260100  1
  H  H323  1  0.360300  -0.240500  1.021600  1
  H  H324  1  0.352500  0.148300  1.180000  1
  H  H325  1  0.380100  -0.003800  0.949500  1
  H  H326  1  0.341000  0.220900  1.311600  1
  H  H327  1  0.392400  -0.099900  0.825400  1
  H  H328  1  0.343800  0.294000  1.417400  1
  H  H329  1  0.173700  0.126900  0.897800  1
  H  H330  1  0.158700  0.186900  0.963800  1
  H  H331  1  0.388900  0.255300  0.890400  1
  H  H332  1  0.476000  0.242500  0.947100  1
  H  H333  1  0.331100  0.333333  1.077300  1
  H  H334  1  0.444100  0.339300  1.088100  1
  H  H335  1  0.391800  -0.167300  0.720900  1
  H  H336  1  0.178900  0.293600  0.915000  1
  H  H337  1  0.095700  0.210200  0.853400  1
  H  H338  1  0.207500  0.240900  0.852700  1
  H  H339  1  0.394700  0.096300  0.894600  1
  H  H340  1  0.416400  0.135000  0.834700  1
  H  H341  1  0.306000  0.108400  0.838500  1
  H  H342  1  0.435000  0.395400  0.991000  1
  H  H343  1  0.428100  0.455300  1.061300  1
  H  H344  1  0.328700  0.399600  0.992400  1
  H  H345  1  0.362400  0.277100  1.588400  1
  H  H346  1  0.313400  0.414500  1.459700  1
  H  H347  1  0.390700  -0.134500  0.619800  1
  H  H348  1  0.418000  -0.354400  0.630900  1
  H  H349  1  0.351400  0.377800  1.682100  1
  H  H350  1  0.306300  0.515000  1.553800  1
  H  H351  1  0.407500  -0.165000  0.506600  1
  H  H352  1  0.429700  -0.385800  0.516000  1
  H  H353  1  0.323400  0.497100  1.665800  1
  H  H354  1  0.423200  -0.291100  0.453600  1
  H  H355  1  0.526300  0.405800  0.786400  1
  H  H356  1  0.534300  0.379500  0.856600  1
  H  H357  1  0.759300  0.469000  0.840100  1
  H  H358  1  0.816000  0.405000  0.850500  1
  H  H359  1  0.648400  0.344800  0.686700  1
  H  H360  1  0.566100  0.256500  0.671500  1
  H  H361  1  0.429100  0.240300  0.780900  1
  H  H362  1  0.373700  0.305700  0.772200  1
  H  H363  1  0.417700  0.270100  0.712200  1
  H  H364  1  0.716300  0.464500  0.942700  1
  H  H365  1  0.773000  0.400400  0.953100  1
  H  H366  1  0.835400  0.494500  0.963200  1
  H  H367  1  0.692500  0.200900  0.702900  1
  H  H368  1  0.704700  0.238600  0.640600  1
  H  H369  1  0.777000  0.290000  0.722800  1
  H  H370  1  0.632000  0.078600  0.739900  1
  H  H371  1  0.639700  0.240500  0.978400  1
  H  H372  1  0.647500  -0.148300  0.820000  1
  H  H373  1  0.619900  0.003800  1.050500  1
  H  H374  1  0.659000  -0.220900  0.688400  1
  H  H375  1  0.607600  0.099900  1.174600  1
  H  H376  1  0.656200  -0.294000  0.582600  1
  H  H377  1  0.826300  -0.126900  1.102200  1
  H  H378  1  0.841300  -0.186900  1.036200  1
  H  H379  1  0.611100  -0.255300  1.109600  1
  H  H380  1  0.524000  -0.242500  1.052900  1
  H  H381  1  0.668900  -0.333333  0.922700  1
  H  H382  1  0.555900  -0.339300  0.911900  1
  H  H383  1  0.608200  0.167300  1.279100  1
  H  H384  1  0.821100  -0.293600  1.085000  1
  H  H385  1  0.904300  -0.210200  1.146600  1
  H  H386  1  0.792500  -0.240900  1.147300  1
  H  H387  1  0.605300  -0.096300  1.105400  1
  H  H388  1  0.583600  -0.135000  1.165300  1
  H  H389  1  0.694000  -0.108400  1.161500  1
  H  H390  1  0.565000  -0.395400  1.009000  1
  H  H391  1  0.571900  -0.455300  0.938700  1
  H  H392  1  0.671300  -0.399600  1.007600  1
  H  H393  1  0.637600  -0.277100  0.411600  1
  H  H394  1  0.686600  -0.414500  0.540300  1
  H  H395  1  0.609300  0.134500  1.380200  1
  H  H396  1  0.582000  0.354400  1.369100  1
  H  H397  1  0.648600  -0.377800  0.317900  1
  H  H398  1  0.693700  -0.515000  0.446200  1
  H  H399  1  0.592500  0.165000  1.493400  1
  H  H400  1  0.570300  0.385800  1.484000  1
  H  H401  1  0.676600  -0.497100  0.334200  1
  H  H402  1  0.576800  0.291100  1.546400  1
  H  H403  1  0.381800  0.513900  0.393100  1.0
  H  H404  1  0.344200  0.514200  0.312200  1
  H  H405  1  0.461500  0.541000  0.355400  1
  H  H406  1  0.472300  0.396900  0.256900  1
  H  H407  1  0.376900  0.416800  0.218100  1
  H  H408  1  0.362900  0.326000  0.224300  1
  H  H409  1  0.618200  0.486100  0.606900  1.0
  H  H410  1  0.655800  0.485800  0.687800  1
  H  H411  1  0.538500  0.459000  0.644600  1
  H  H412  1  0.527700  0.603100  0.743100  1
  H  H413  1  0.623100  0.583200  0.781900  1
  H  H414  1  0.637100  0.674000  0.775700  1
  H  H415  1  0.141300  0.265700  0.534100  1.0
  H  H416  1  0.021600  0.224000  0.501000  1
  H  H417  1  0.075800  0.318600  0.507500  1
  H  H418  1  0.011700  0.105300  0.391200  1
  H  H419  1  0.129700  0.133200  0.432500  1
  H  H420  1  0.088400  0.130800  0.350900  1
  H  H421  1  0.858700  0.734300  0.465900  1.0
  H  H422  1  0.978400  0.776000  0.499000  1
  H  H423  1  0.924200  0.681400  0.492500  1
  H  H424  1  0.988300  0.894700  0.608800  1
  H  H425  1  0.870300  0.866800  0.567500  1
  H  H426  1  0.911600  0.869200  0.649100  1
  H  H427  1  0.076900  0.551300  0.945400  1.0
  H  H428  1  -0.040600  0.528800  0.930600  1
  H  H429  1  0.031300  0.526600  1.003400  1
  H  H430  1  -0.010900  0.719100  1.066000  1
  H  H431  1  -0.022200  0.632200  1.079900  1
  H  H432  1  -0.096000  0.634200  1.007800  1
  H  H433  1  0.923100  0.448700  0.054600  1.0
  H  H434  1  1.040600  0.471200  0.069400  1
  H  H435  1  0.968700  0.473400  -0.003400  1
  H  H436  1  1.010900  0.280900  -0.066000  1
  H  H437  1  1.022200  0.367800  -0.079900  1
  H  H438  1  1.096000  0.365800  -0.007800  1
  N  N439  1  0.111100  -0.124100  1.046900  1
  N  N440  1  0.125800  -0.628500  0.286600  1
  N  N441  1  -0.111100  -0.875900  -0.046900  1
  N  N442  1  -0.125800  -0.371500  0.713400  1
  N  N443  1  0.340000  0.276700  1.453900  1
  N  N444  1  0.394800  -0.217500  0.705200  1
  N  N445  1  0.660000  -0.276700  0.546100  1
  N  N446  1  0.605200  0.217500  1.294800  1
  O  O447  1  0.108600  -0.007800  1.016890  1
  O  O448  1  0.153100  -0.509400  0.258100  1
  O  O449  1  -0.108600  -0.992200  -0.016890  1
  O  O450  1  -0.153100  -0.490600  0.741900  1
  O  O451  1  0.329400  0.164000  1.490920  1
  O  O452  1  0.393400  -0.332800  0.738200  1
  O  O453  1  0.670600  -0.164000  0.509080  1
  O  O454  1  0.606600  0.332800  1.261800  1
  O  O455  1  0.370800  0.368400  0.352500  1
  O  O456  1  0.629200  0.631600  0.647500  1
  O  O457  1  0.095800  0.277200  0.388800  1
  O  O458  1  0.904200  0.722800  0.611200  1
  O  O459  1  0.114900  0.702600  1.016200  1
  O  O460  1  0.885100  0.297400  -0.016200  1
  S  S461  1  0.138440  -0.057810  0.878440  1
  S  S462  1  0.157100  -0.393420  0.382520  1
  S  S463  1  -0.138440  -0.942190  0.121560  1
  S  S464  1  -0.157100  -0.606580  0.617480  1
  S  S465  1  0.348720  0.051200  1.371620  1
  S  S466  1  0.372850  -0.278210  0.876840  1
  S  S467  1  0.651280  -0.051200  0.628380  1
  S  S468  1  0.627150  0.278210  1.123160  1
  Si  Si469  1  0.220800  0.008140  0.569280  1.0
  Si  Si470  1  0.130990  -0.562220  0.775380  1
  Si  Si471  1  -0.220800  -1.008140  0.430720  1.0
  Si  Si472  1  -0.130990  -0.437780  0.224620  1
  Si  Si473  1  0.359980  -0.330920  1.201630  1.0
  Si  Si474  1  0.332770  0.222690  0.982450  1
  Si  Si475  1  0.640020  0.330920  0.798370  1.0
  Si  Si476  1  0.667230  -0.222690  1.017550  1
