# generated using pymatgen
data_SiH31C24
_symmetry_space_group_name_H-M   'P 1'
_cell_length_a   11.29210000
_cell_length_b   11.31980000
_cell_length_c   17.35120000
_cell_angle_alpha   108.92460000
_cell_angle_beta   95.16660000
_cell_angle_gamma   91.80530000
_symmetry_Int_Tables_number   1
_chemical_formula_structural   SiH31C24
_chemical_formula_sum   'Si4 H124 C96'
_cell_volume   2085.15204289
_cell_formula_units_Z   4
loop_
 _symmetry_equiv_pos_site_id
 _symmetry_equiv_pos_as_xyz
  1  'x, y, z'
loop_
 _atom_site_type_symbol
 _atom_site_label
 _atom_site_symmetry_multiplicity
 _atom_site_fract_x
 _atom_site_fract_y
 _atom_site_fract_z
 _atom_site_occupancy
  C  C1  1  0.314630  0.351470  0.771600  1
  C  C2  1  0.229400  0.488500  0.935620  1
  C  C3  1  0.426900  0.305300  0.921490  1
  C  C4  1  0.170500  0.206000  0.849960  1
  C  C5  1  0.334500  0.355560  0.704990  1
  C  C6  1  0.118800  0.532300  0.901510  1
  C  C7  1  0.488500  0.195300  0.868680  1
  C  C8  1  0.076000  0.184400  0.780280  1
  C  C9  1  0.356680  0.363460  0.626530  1
  C  C10  1  0.074700  0.653100  0.956450  1
  C  C11  1  0.597700  0.160600  0.912540  1
  C  C12  1  -0.015800  0.076100  0.769800  1
  C  C13  1  0.444090  0.290420  0.582580  1
  C  C14  1  0.288880  0.442380  0.593550  1
  C  C15  1  0.508540  0.206550  0.611720  1
  C  C16  1  0.465240  0.298930  0.503880  1
  C  C17  1  0.307900  0.448580  0.514270  1
  C  C18  1  0.201330  0.515410  0.636110  1
  C  C19  1  0.591510  0.131950  0.568020  1
  C  C20  1  0.552870  0.227270  0.461520  1
  C  C21  1  0.395530  0.376330  0.470290  1
  C  C22  1  0.236930  0.524860  0.481430  1
  C  C23  1  0.131460  0.589540  0.603640  1
  C  C24  1  0.652880  0.041640  0.596690  1
  C  C25  1  0.615650  0.144070  0.490270  1
  C  C26  1  0.409590  0.374960  0.388880  1
  C  C27  1  0.149640  0.594820  0.523240  1
  C  C28  1  0.040720  0.662150  0.647660  1
  C  C29  1  0.733210  -0.027400  0.550470  1
  C  C30  1  0.627800  0.021900  0.675520  1
  C  C31  1  0.703010  0.068360  0.444050  1
  C  C32  1  0.417900  0.367550  0.318460  1
  C  C33  1  0.076360  0.671240  0.488220  1
  C  C34  1  -0.026760  0.729800  0.610970  1
  C  C35  1  0.021900  0.661600  0.732400  1
  C  C36  1  0.758580  -0.013300  0.475050  1
  C  C37  1  0.729440  0.079300  0.362930  1
  C  C38  1  -0.009200  0.734900  0.532000  1
  C  C39  1  0.095200  0.680700  0.406110  1
  C  C40  1  0.363170  0.478800  0.184030  1
  C  C41  1  0.551700  0.286400  0.166530  1
  C  C42  1  0.288390  0.206300  0.164910  1
  C  C43  1  0.249300  0.528900  0.216970  1
  C  C44  1  0.606200  0.182800  0.189300  1
  C  C45  1  0.252700  0.163900  0.072160  1
  C  C46  1  0.214500  0.646600  0.202130  1
  C  C47  1  0.706600  0.123900  0.142400  1
  C  C48  1  0.148900  0.066100  0.043620  1
  C  C49  1  0.685370  0.648530  0.228400  1
  C  C50  1  0.770600  0.511500  0.064380  1
  C  C51  1  0.573100  0.694700  0.078510  1
  C  C52  1  0.829500  0.794000  0.150040  1
  C  C53  1  0.665500  0.644440  0.295010  1
  C  C54  1  0.881200  0.467700  0.098490  1
  C  C55  1  0.511500  0.804700  0.131320  1
  C  C56  1  0.924000  0.815600  0.219720  1
  C  C57  1  0.643320  0.636540  0.373470  1
  C  C58  1  0.925300  0.346900  0.043550  1
  C  C59  1  0.402300  0.839400  0.087460  1
  C  C60  1  1.015800  0.923900  0.230200  1
  C  C61  1  0.555910  0.709580  0.417420  1
  C  C62  1  0.711120  0.557620  0.406450  1
  C  C63  1  0.491460  0.793450  0.388280  1
  C  C64  1  0.534760  0.701070  0.496120  1
  C  C65  1  0.692100  0.551420  0.485730  1
  C  C66  1  0.798670  0.484590  0.363890  1
  C  C67  1  0.408490  0.868050  0.431980  1
  C  C68  1  0.447130  0.772730  0.538480  1
  C  C69  1  0.604470  0.623670  0.529710  1
  C  C70  1  0.763070  0.475140  0.518570  1
  C  C71  1  0.868540  0.410460  0.396360  1
  C  C72  1  0.347120  0.958360  0.403310  1
  C  C73  1  0.384350  0.855930  0.509730  1
  C  C74  1  0.590410  0.625040  0.611120  1
  C  C75  1  0.850360  0.405180  0.476760  1
  C  C76  1  0.959280  0.337850  0.352340  1
  C  C77  1  0.266790  1.027400  0.449530  1
  C  C78  1  0.372200  0.978100  0.324480  1
  C  C79  1  0.296990  0.931640  0.555950  1
  C  C80  1  0.582100  0.632450  0.681540  1
  C  C81  1  0.923640  0.328760  0.511780  1
  C  C82  1  1.026760  0.270200  0.389030  1
  C  C83  1  0.978100  0.338400  0.267600  1
  C  C84  1  0.241420  1.013300  0.524950  1
  C  C85  1  0.270560  0.920700  0.637070  1
  C  C86  1  1.009200  0.265100  0.468000  1
  C  C87  1  0.904800  0.319300  0.593890  1
  C  C88  1  0.636830  0.521200  0.815970  1
  C  C89  1  0.448300  0.713600  0.833470  1
  C  C90  1  0.711610  0.793700  0.835090  1
  C  C91  1  0.750700  0.471100  0.783030  1
  C  C92  1  0.393800  0.817200  0.810700  1
  C  C93  1  0.747300  0.836100  0.927840  1
  C  C94  1  0.785500  0.353400  0.797870  1
  C  C95  1  0.293400  0.876100  0.857600  1
  C  C96  1  0.851100  0.933900  0.956380  1
  H  H97  1  0.214400  0.479400  0.988800  1
  H  H98  1  0.294000  0.554800  0.946800  1
  H  H99  1  0.482100  0.380900  0.937600  1
  H  H100  1  0.410000  0.288800  0.972200  1
  H  H101  1  0.213100  0.128300  0.840600  1
  H  H102  1  0.130500  0.218700  0.900300  1
  H  H103  1  0.054300  0.465500  0.889200  1
  H  H104  1  0.134100  0.543800  0.849000  1
  H  H105  1  0.512600  0.215500  0.820700  1
  H  H106  1  0.430600  0.121700  0.848000  1
  H  H107  1  0.114600  0.167500  0.729100  1
  H  H108  1  0.033700  0.262100  0.788200  1
  H  H109  1  0.057900  0.642900  1.008500  1
  H  H110  1  0.001800  0.672900  0.929300  1
  H  H111  1  0.136000  0.721200  0.967000  1
  H  H112  1  0.653100  0.234600  0.936900  1
  H  H113  1  0.637000  0.095000  0.873200  1
  H  H114  1  0.573300  0.129900  0.955800  1
  H  H115  1  0.025200  -0.001000  0.763300  1
  H  H116  1  -0.071800  0.065200  0.721100  1
  H  H117  1  -0.059400  0.095000  0.818300  1
  H  H118  1  0.494700  0.200600  0.663600  1
  H  H119  1  0.189900  0.513600  0.689300  1
  H  H120  1  0.569900  0.236200  0.411000  1
  H  H121  1  0.249300  0.528500  0.428800  1
  H  H122  1  0.773700  -0.086900  0.569200  1
  H  H123  1  0.669000  -0.050300  0.681000  1
  H  H124  1  0.541800  0.006500  0.675100  1
  H  H125  1  0.656200  0.096700  0.721800  1
  H  H126  1  -0.088000  0.775400  0.639100  1
  H  H127  1  -0.038600  0.719900  0.754400  1
  H  H128  1  0.097000  0.687600  0.768100  1
  H  H129  1  -0.004900  0.577100  0.729800  1
  H  H130  1  0.816400  -0.062900  0.445400  1
  H  H131  1  0.795800  0.028200  0.343100  1
  H  H132  1  0.750900  0.167000  0.369800  1
  H  H133  1  0.658700  0.049900  0.323100  1
  H  H134  1  -0.058600  0.784100  0.509100  1
  H  H135  1  0.036300  0.733700  0.391400  1
  H  H136  1  0.086100  0.597000  0.364900  1
  H  H137  1  0.175600  0.717600  0.408200  1
  H  H138  1  0.428300  0.544900  0.207300  1
  H  H139  1  0.354000  0.459600  0.123900  1
  H  H140  1  0.539400  0.260800  0.106000  1
  H  H141  1  0.609500  0.360100  0.185800  1
  H  H142  1  0.315300  0.132900  0.179300  1
  H  H143  1  0.216400  0.233100  0.192900  1
  H  H144  1  0.183800  0.463600  0.192000  1
  H  H145  1  0.257400  0.544300  0.276800  1
  H  H146  1  0.542700  0.116500  0.182200  1
  H  H147  1  0.635900  0.215100  0.248300  1
  H  H148  1  0.231200  0.237700  0.056400  1
  H  H149  1  0.322200  0.129300  0.043500  1
  H  H150  1  0.281300  0.709900  0.222000  1
  H  H151  1  0.145500  0.677500  0.231400  1
  H  H152  1  0.193900  0.629500  0.143300  1
  H  H153  1  0.674300  0.066500  0.088500  1
  H  H154  1  0.751800  0.077300  0.172600  1
  H  H155  1  0.759400  0.189300  0.135500  1
  H  H156  1  0.169800  -0.007800  0.058400  1
  H  H157  1  0.131200  0.042200  -0.016000  1
  H  H158  1  0.078700  0.100700  0.070100  1
  H  H159  1  0.785600  0.520600  0.011200  1
  H  H160  1  0.706000  0.445200  0.053200  1
  H  H161  1  0.517900  0.619100  0.062400  1
  H  H162  1  0.590000  0.711200  0.027800  1
  H  H163  1  0.786900  0.871700  0.159400  1
  H  H164  1  0.869500  0.781300  0.099700  1
  H  H165  1  0.945700  0.534500  0.110800  1
  H  H166  1  0.865900  0.456200  0.151000  1
  H  H167  1  0.487400  0.784500  0.179300  1
  H  H168  1  0.569400  0.878300  0.152000  1
  H  H169  1  0.885400  0.832500  0.270900  1
  H  H170  1  0.966300  0.737900  0.211800  1
  H  H171  1  0.942100  0.357100  -0.008500  1
  H  H172  1  0.998200  0.327100  0.070700  1
  H  H173  1  0.864000  0.278800  0.033000  1
  H  H174  1  0.346900  0.765400  0.063100  1
  H  H175  1  0.363000  0.905000  0.126800  1
  H  H176  1  0.426700  0.870100  0.044200  1
  H  H177  1  0.974800  1.001000  0.236700  1
  H  H178  1  1.071800  0.934800  0.278900  1
  H  H179  1  1.059400  0.905000  0.181700  1
  H  H180  1  0.505300  0.799400  0.336400  1
  H  H181  1  0.810100  0.486400  0.310700  1
  H  H182  1  0.430100  0.763800  0.589000  1
  H  H183  1  0.750700  0.471500  0.571200  1
  H  H184  1  0.226300  1.086900  0.430800  1
  H  H185  1  0.331000  1.050300  0.319000  1
  H  H186  1  0.458200  0.993500  0.324900  1
  H  H187  1  0.343800  0.903300  0.278200  1
  H  H188  1  1.088000  0.224600  0.360900  1
  H  H189  1  1.038600  0.280100  0.245600  1
  H  H190  1  0.903000  0.312400  0.231900  1
  H  H191  1  1.004900  0.422900  0.270200  1
  H  H192  1  0.183600  1.062900  0.554600  1
  H  H193  1  0.204200  0.971800  0.656900  1
  H  H194  1  0.249100  0.833000  0.630200  1
  H  H195  1  0.341300  0.950100  0.676900  1
  H  H196  1  1.058600  0.215900  0.490900  1
  H  H197  1  0.963700  0.266300  0.608600  1
  H  H198  1  0.913900  0.403000  0.635100  1
  H  H199  1  0.824400  0.282400  0.591800  1
  H  H200  1  0.571700  0.455100  0.792700  1
  H  H201  1  0.646000  0.540400  0.876100  1
  H  H202  1  0.460600  0.739200  0.894000  1
  H  H203  1  0.390500  0.639900  0.814200  1
  H  H204  1  0.684700  0.867100  0.820700  1
  H  H205  1  0.783600  0.766900  0.807100  1
  H  H206  1  0.816200  0.536400  0.808000  1
  H  H207  1  0.742600  0.455700  0.723200  1
  H  H208  1  0.457300  0.883500  0.817800  1
  H  H209  1  0.364100  0.784900  0.751700  1
  H  H210  1  0.768800  0.762300  0.943600  1
  H  H211  1  0.677800  0.870700  0.956500  1
  H  H212  1  0.718700  0.290100  0.778000  1
  H  H213  1  0.854500  0.322500  0.768600  1
  H  H214  1  0.806100  0.370500  0.856700  1
  H  H215  1  0.325700  0.933500  0.911500  1
  H  H216  1  0.248200  0.922700  0.827400  1
  H  H217  1  0.240600  0.810700  0.864500  1
  H  H218  1  0.830200  1.007800  0.941600  1
  H  H219  1  0.868800  0.957800  1.016000  1
  H  H220  1  0.921300  0.899300  0.929900  1
  Si  Si221  1  0.284030  0.338320  0.870680  1.0
  Si  Si222  1  0.407400  0.335680  0.207040  1
  Si  Si223  1  0.715970  0.661680  0.129320  1.0
  Si  Si224  1  0.592600  0.664320  0.792960  1
