# generated using pymatgen
data_SiH19C17S
_symmetry_space_group_name_H-M   'P 1'
_cell_length_a   6.30150000
_cell_length_b   17.83880000
_cell_length_c   13.77390000
_cell_angle_alpha   90.00000000
_cell_angle_beta   91.80300000
_cell_angle_gamma   90.00000000
_symmetry_Int_Tables_number   1
_chemical_formula_structural   SiH19C17S
_chemical_formula_sum   'Si4 H76 C68 S4'
_cell_volume   1547.57404165
_cell_formula_units_Z   4
loop_
 _symmetry_equiv_pos_site_id
 _symmetry_equiv_pos_as_xyz
  1  'x, y, z'
loop_
 _atom_site_type_symbol
 _atom_site_label
 _atom_site_symmetry_multiplicity
 _atom_site_fract_x
 _atom_site_fract_y
 _atom_site_fract_z
 _atom_site_occupancy
  C  C1  1  0.327000  -0.038400  0.564500  1
  C  C2  1  -0.072400  0.051800  0.580800  1
  C  C3  1  0.352000  0.131000  0.555200  1
  C  C4  1  0.264800  0.053500  0.744400  1
  C  C5  1  0.380300  -0.101400  0.544900  1
  C  C6  1  -0.126600  0.051600  0.472700  1
  C  C7  1  0.247700  0.207000  0.580400  1
  C  C8  1  0.466600  0.015200  0.785100  1
  C  C9  1  0.436000  -0.176300  0.521700  1
  C  C10  1  0.627500  -0.207300  0.563800  1
  C  C11  1  0.305800  -0.218100  0.456000  1
  C  C12  1  0.752400  -0.165800  0.630900  1
  C  C13  1  0.685600  -0.283100  0.538200  1
  C  C14  1  0.368400  -0.293600  0.431200  1
  C  C15  1  0.115000  -0.187800  0.414700  1
  C  C16  1  0.933600  -0.198800  0.671600  1
  C  C17  1  0.873200  -0.313400  0.578600  1
  C  C18  1  0.551600  -0.324400  0.473700  1
  C  C19  1  0.235600  -0.333333  0.362900  1
  C  C20  1  -0.006500  -0.227300  0.349400  1
  C  C21  1  0.994000  -0.272000  0.644400  1
  C  C22  1  0.616300  -0.399900  0.448100  1
  C  C23  1  0.058100  -0.302500  0.322600  1
  C  C24  1  1.179000  -0.290300  0.691500  1
  C  C25  1  1.257000  -0.240700  0.758500  1
  C  C26  1  0.669000  -0.462000  0.427400  1
  C  C27  1  -0.105000  -0.336900  0.251000  1
  C  C28  1  -0.259700  -0.288100  0.228600  1
  C  C29  1  0.734500  -0.551500  0.247600  1
  C  C30  1  0.644100  -0.632300  0.444200  1
  C  C31  1  1.062100  -0.552900  0.416200  1
  C  C32  1  0.540300  -0.518000  0.207900  1
  C  C33  1  0.744300  -0.707800  0.421900  1
  C  C34  1  1.115000  -0.551100  0.524800  1
  C  C35  1  0.327000  -0.961600  1.064500  1
  C  C36  1  -0.072400  -1.051800  1.080800  1
  C  C37  1  0.352000  -1.131000  1.055200  1
  C  C38  1  0.264800  -1.053500  1.244400  1
  C  C39  1  0.380300  -0.898600  1.044900  1
  C  C40  1  -0.126600  -1.051600  0.972700  1
  C  C41  1  0.247700  -1.207000  1.080400  1
  C  C42  1  0.466600  -1.015200  1.285100  1
  C  C43  1  0.436000  -0.823700  1.021700  1
  C  C44  1  0.627500  -0.792700  1.063800  1
  C  C45  1  0.305800  -0.781900  0.956000  1
  C  C46  1  0.752400  -0.834200  1.130900  1
  C  C47  1  0.685600  -0.716900  1.038200  1
  C  C48  1  0.368400  -0.706400  0.931200  1
  C  C49  1  0.115000  -0.812200  0.914700  1
  C  C50  1  0.933600  -0.801200  1.171600  1
  C  C51  1  0.873200  -0.686600  1.078600  1
  C  C52  1  0.551600  -0.675600  0.973700  1
  C  C53  1  0.235600  -0.666667  0.862900  1
  C  C54  1  -0.006500  -0.772700  0.849400  1
  C  C55  1  0.994000  -0.728000  1.144400  1
  C  C56  1  0.616300  -0.600100  0.948100  1
  C  C57  1  0.058100  -0.697500  0.822600  1
  C  C58  1  1.179000  -0.709700  1.191500  1
  C  C59  1  1.257000  -0.759300  1.258500  1
  C  C60  1  0.669000  -0.538000  0.927400  1
  C  C61  1  -0.105000  -0.663100  0.751000  1
  C  C62  1  -0.259700  -0.711900  0.728600  1
  C  C63  1  0.734500  -0.448500  0.747600  1
  C  C64  1  0.644100  -0.367700  0.944200  1
  C  C65  1  1.062100  -0.447100  0.916200  1
  C  C66  1  0.540300  -0.482000  0.707900  1
  C  C67  1  0.744300  -0.292200  0.921900  1
  C  C68  1  1.115000  -0.448900  1.024800  1
  H  H69  1  -0.139000  0.007500  0.610600  1
  H  H70  1  -0.135000  0.097100  0.610000  1
  H  H71  1  0.502600  0.131600  0.577900  1
  H  H72  1  0.348600  0.124500  0.483800  1
  H  H73  1  0.269300  0.106700  0.764500  1
  H  H74  1  0.141400  0.030300  0.775500  1
  H  H75  1  -0.090600  0.100400  0.444900  1
  H  H76  1  -0.278800  0.042100  0.462300  1
  H  H77  1  -0.045400  0.012200  0.441100  1
  H  H78  1  0.095800  0.205100  0.563000  1
  H  H79  1  0.314900  0.247200  0.544000  1
  H  H80  1  0.266500  0.216600  0.650200  1
  H  H81  1  0.457400  -0.038900  0.773100  1
  H  H82  1  0.480700  0.024400  0.855100  1
  H  H83  1  0.590600  0.035600  0.752900  1
  H  H84  1  0.713600  -0.116200  0.647900  1
  H  H85  1  0.071500  -0.139000  0.433100  1
  H  H86  1  0.917200  -0.362300  0.560800  1
  H  H87  1  0.273300  -0.382900  0.345200  1
  H  H88  1  1.251600  -0.335700  0.678100  1
  H  H89  1  1.380100  -0.248400  0.798700  1
  H  H90  1  -0.097800  -0.386400  0.225600  1
  H  H91  1  -0.371900  -0.299600  0.183400  1
  H  H92  1  0.856100  -0.524800  0.219700  1
  H  H93  1  0.740300  -0.604100  0.224800  1
  H  H94  1  0.650700  -0.624300  0.515300  1
  H  H95  1  0.492500  -0.633700  0.423100  1
  H  H96  1  1.125100  -0.598700  0.388400  1
  H  H97  1  1.129500  -0.509200  0.385500  1
  H  H98  1  0.417400  -0.542900  0.235500  1
  H  H99  1  0.534700  -0.523900  0.137100  1
  H  H100  1  0.537700  -0.464600  0.224300  1
  H  H101  1  0.766300  -0.711700  0.352000  1
  H  H102  1  0.650000  -0.748100  0.442200  1
  H  H103  1  0.881200  -0.712100  0.457300  1
  H  H104  1  1.067400  -0.503400  0.552000  1
  H  H105  1  1.268800  -0.556100  0.535700  1
  H  H106  1  1.042900  -0.592700  0.556600  1
  H  H107  1  -0.139000  -1.007500  1.110600  1
  H  H108  1  -0.135000  -1.097100  1.110000  1
  H  H109  1  0.502600  -1.131600  1.077900  1
  H  H110  1  0.348600  -1.124500  0.983800  1
  H  H111  1  0.269300  -1.106700  1.264500  1
  H  H112  1  0.141400  -1.030300  1.275500  1
  H  H113  1  -0.090600  -1.100400  0.944900  1
  H  H114  1  -0.278800  -1.042100  0.962300  1
  H  H115  1  -0.045400  -1.012200  0.941100  1
  H  H116  1  0.095800  -1.205100  1.063000  1
  H  H117  1  0.314900  -1.247200  1.044000  1
  H  H118  1  0.266500  -1.216600  1.150200  1
  H  H119  1  0.457400  -0.961100  1.273100  1
  H  H120  1  0.480700  -1.024400  1.355100  1
  H  H121  1  0.590600  -1.035600  1.252900  1
  H  H122  1  0.713600  -0.883800  1.147900  1
  H  H123  1  0.071500  -0.861000  0.933100  1
  H  H124  1  0.917200  -0.637700  1.060800  1
  H  H125  1  0.273300  -0.617100  0.845200  1
  H  H126  1  1.251600  -0.664300  1.178100  1
  H  H127  1  1.380100  -0.751600  1.298700  1
  H  H128  1  -0.097800  -0.613600  0.725600  1
  H  H129  1  -0.371900  -0.700400  0.683400  1
  H  H130  1  0.856100  -0.475200  0.719700  1
  H  H131  1  0.740300  -0.395900  0.724800  1
  H  H132  1  0.650700  -0.375700  1.015300  1
  H  H133  1  0.492500  -0.366300  0.923100  1
  H  H134  1  1.125100  -0.401300  0.888400  1
  H  H135  1  1.129500  -0.490800  0.885500  1
  H  H136  1  0.417400  -0.457100  0.735500  1
  H  H137  1  0.534700  -0.476100  0.637100  1
  H  H138  1  0.537700  -0.535400  0.724300  1
  H  H139  1  0.766300  -0.288300  0.852000  1
  H  H140  1  0.650000  -0.251900  0.942200  1
  H  H141  1  0.881200  -0.287900  0.957300  1
  H  H142  1  1.067400  -0.496600  1.052000  1
  H  H143  1  1.268800  -0.443900  1.035700  1
  H  H144  1  1.042900  -0.407300  1.056600  1
  S  S145  1  1.100800  -0.162500  0.759800  1
  S  S146  1  -0.242100  -0.201100  0.288100  1
  S  S147  1  1.100800  -0.837500  1.259800  1
  S  S148  1  -0.242100  -0.798900  0.788100  1
  Si  Si149  1  0.216600  0.050310  0.611160  1.0
  Si  Si150  1  0.773500  -0.551710  0.384380  1
  Si  Si151  1  0.216600  -1.050310  1.111160  1.0
  Si  Si152  1  0.773500  -0.448290  0.884380  1
