# generated using pymatgen
data_SiH11(C6F)2
_symmetry_space_group_name_H-M   'P 1'
_cell_length_a   6.73520000
_cell_length_b   14.85140000
_cell_length_c   23.36480000
_cell_angle_alpha   90.00000000
_cell_angle_beta   94.73500000
_cell_angle_gamma   90.00000000
_symmetry_Int_Tables_number   1
_chemical_formula_structural   SiH11(C6F)2
_chemical_formula_sum   'Si8 H88 C96 F16'
_cell_volume   2329.13811095
_cell_formula_units_Z   8
loop_
 _symmetry_equiv_pos_site_id
 _symmetry_equiv_pos_as_xyz
  1  'x, y, z'
loop_
 _atom_site_type_symbol
 _atom_site_label
 _atom_site_symmetry_multiplicity
 _atom_site_fract_x
 _atom_site_fract_y
 _atom_site_fract_z
 _atom_site_occupancy
  C  C1  1  0.254500  0.548800  0.686000  1
  C  C2  1  0.493700  0.628600  0.785100  1
  C  C3  1  0.053800  0.677300  0.762400  1
  C  C4  1  0.353700  0.744000  0.681100  1
  C  C5  1  0.240600  0.484100  0.654420  1
  C  C6  1  0.228400  0.411400  0.614000  1
  C  C7  1  0.233400  0.431700  0.554000  1
  C  C8  1  0.211900  0.324100  0.631600  1
  C  C9  1  0.253400  0.520300  0.534600  1
  C  C10  1  0.221600  0.359400  0.513300  1
  C  C11  1  0.195800  0.252400  0.591300  1
  C  C12  1  0.258500  0.538600  0.476600  1
  C  C13  1  0.229800  0.378600  0.455200  1
  C  C14  1  0.198700  0.268500  0.533700  1
  C  C15  1  0.277200  0.627700  0.455700  1
  C  C16  1  0.249600  0.466300  0.436100  1
  C  C17  1  0.174700  0.196100  0.492900  1
  C  C18  1  0.284400  0.644800  0.399400  1
  C  C19  1  0.259000  0.488200  0.377000  1
  C  C20  1  0.150400  0.136000  0.458000  1
  C  C21  1  0.275400  0.573800  0.359300  1
  C  C22  1  -0.168900  0.021600  0.398900  1
  C  C23  1  0.247800  -0.053800  0.427600  1
  C  C24  1  0.175600  0.092100  0.334000  1
  C  C25  1  -0.254500  1.048800  -0.186000  1
  C  C26  1  -0.493700  1.128600  -0.285100  1
  C  C27  1  -0.053800  1.177300  -0.262400  1
  C  C28  1  -0.353700  1.244000  -0.181100  1
  C  C29  1  -0.240600  0.984100  -0.154420  1
  C  C30  1  -0.228400  0.911400  -0.114000  1
  C  C31  1  -0.233400  0.931700  -0.054000  1
  C  C32  1  -0.211900  0.824100  -0.131600  1
  C  C33  1  -0.253400  1.020300  -0.034600  1
  C  C34  1  -0.221600  0.859400  -0.013300  1
  C  C35  1  -0.195800  0.752400  -0.091300  1
  C  C36  1  -0.258500  1.038600  0.023400  1
  C  C37  1  -0.229800  0.878600  0.044800  1
  C  C38  1  -0.198700  0.768500  -0.033700  1
  C  C39  1  -0.277200  1.127700  0.044300  1
  C  C40  1  -0.249600  0.966300  0.063900  1
  C  C41  1  -0.174700  0.696100  0.007100  1
  C  C42  1  -0.284400  1.144800  0.100600  1
  C  C43  1  -0.259000  0.988200  0.123000  1
  C  C44  1  -0.150400  0.636000  0.042000  1
  C  C45  1  -0.275400  1.073800  0.140700  1
  C  C46  1  0.168900  0.521600  0.101100  1
  C  C47  1  -0.247800  0.446200  0.072400  1
  C  C48  1  -0.175600  0.592100  0.166000  1
  C  C49  1  -0.254500  0.451200  0.314000  1
  C  C50  1  -0.493700  0.371400  0.214900  1
  C  C51  1  -0.053800  0.322700  0.237600  1
  C  C52  1  -0.353700  0.256000  0.318900  1
  C  C53  1  -0.240600  0.515900  0.345580  1
  C  C54  1  -0.228400  0.588600  0.386000  1
  C  C55  1  -0.233400  0.568300  0.446000  1
  C  C56  1  -0.211900  0.675900  0.368400  1
  C  C57  1  -0.253400  0.479700  0.465400  1
  C  C58  1  -0.221600  0.640600  0.486700  1
  C  C59  1  -0.195800  0.747600  0.408700  1
  C  C60  1  -0.258500  0.461400  0.523400  1
  C  C61  1  -0.229800  0.621400  0.544800  1
  C  C62  1  -0.198700  0.731500  0.466300  1
  C  C63  1  -0.277200  0.372300  0.544300  1
  C  C64  1  -0.249600  0.533700  0.563900  1
  C  C65  1  -0.174700  0.803900  0.507100  1
  C  C66  1  -0.284400  0.355200  0.600600  1
  C  C67  1  -0.259000  0.511800  0.623000  1
  C  C68  1  -0.150400  0.864000  0.542000  1
  C  C69  1  -0.275400  0.426200  0.640700  1
  C  C70  1  0.168900  0.978400  0.601100  1
  C  C71  1  -0.247800  1.053800  0.572400  1
  C  C72  1  -0.175600  0.907900  0.666000  1
  C  C73  1  0.254500  -0.048800  1.186000  1
  C  C74  1  0.493700  -0.128600  1.285100  1
  C  C75  1  0.053800  -0.177300  1.262400  1
  C  C76  1  0.353700  -0.244000  1.181100  1
  C  C77  1  0.240600  0.015900  1.154420  1
  C  C78  1  0.228400  0.088600  1.114000  1
  C  C79  1  0.233400  0.068300  1.054000  1
  C  C80  1  0.211900  0.175900  1.131600  1
  C  C81  1  0.253400  -0.020300  1.034600  1
  C  C82  1  0.221600  0.140600  1.013300  1
  C  C83  1  0.195800  0.247600  1.091300  1
  C  C84  1  0.258500  -0.038600  0.976600  1
  C  C85  1  0.229800  0.121400  0.955200  1
  C  C86  1  0.198700  0.231500  1.033700  1
  C  C87  1  0.277200  -0.127700  0.955700  1
  C  C88  1  0.249600  0.033700  0.936100  1
  C  C89  1  0.174700  0.303900  0.992900  1
  C  C90  1  0.284400  -0.144800  0.899400  1
  C  C91  1  0.259000  0.011800  0.877000  1
  C  C92  1  0.150400  0.364000  0.958000  1
  C  C93  1  0.275400  -0.073800  0.859300  1
  C  C94  1  -0.168900  0.478400  0.898900  1
  C  C95  1  0.247800  0.553800  0.927600  1
  C  C96  1  0.175600  0.407900  0.834000  1
  F  F97  1  0.287400  0.696970  0.493690  1
  F  F98  1  0.300600  0.729600  0.379460  1
  F  F99  1  0.252600  0.420700  0.338230  1
  F  F100  1  0.282000  0.594600  0.303260  1
  F  F101  1  -0.287400  1.196970  0.006310  1
  F  F102  1  -0.300600  1.229600  0.120540  1
  F  F103  1  -0.252600  0.920700  0.161770  1
  F  F104  1  -0.282000  1.094600  0.196740  1
  F  F105  1  -0.287400  0.303030  0.506310  1
  F  F106  1  -0.300600  0.270400  0.620540  1
  F  F107  1  -0.252600  0.579300  0.661770  1
  F  F108  1  -0.282000  0.405400  0.696740  1
  F  F109  1  0.287400  -0.196970  0.993690  1
  F  F110  1  0.300600  -0.229600  0.879460  1
  F  F111  1  0.252600  0.079300  0.838230  1
  F  F112  1  0.282000  -0.094600  0.803260  1
  H  H113  1  0.456700  0.578200  0.809100  1
  H  H114  1  0.518100  0.682300  0.809000  1
  H  H115  1  0.614700  0.613200  0.766700  1
  H  H116  1  -0.053600  0.685900  0.731900  1
  H  H117  1  0.070800  0.732400  0.785300  1
  H  H118  1  0.020000  0.627200  0.787100  1
  H  H119  1  0.484800  0.732600  0.667300  1
  H  H120  1  0.356700  0.801200  0.702200  1
  H  H121  1  0.253200  0.747300  0.648400  1
  H  H122  1  0.211200  0.311200  0.671400  1
  H  H123  1  0.263600  0.568300  0.561600  1
  H  H124  1  0.182800  0.192400  0.604500  1
  H  H125  1  0.221700  0.330700  0.428100  1
  H  H126  1  -0.202400  -0.008400  0.434200  1
  H  H127  1  -0.202300  -0.018100  0.366000  1
  H  H128  1  -0.244700  0.077700  0.393900  1
  H  H129  1  0.389600  -0.038300  0.432800  1
  H  H130  1  0.227500  -0.101100  0.398400  1
  H  H131  1  0.203400  -0.075500  0.464000  1
  H  H132  1  0.106000  0.149000  0.325300  1
  H  H133  1  0.139300  0.048400  0.303500  1
  H  H134  1  0.319800  0.102300  0.336600  1
  H  H135  1  -0.456700  1.078200  -0.309100  1
  H  H136  1  -0.518100  1.182300  -0.309000  1
  H  H137  1  -0.614700  1.113200  -0.266700  1
  H  H138  1  0.053600  1.185900  -0.231900  1
  H  H139  1  -0.070800  1.232400  -0.285300  1
  H  H140  1  -0.020000  1.127200  -0.287100  1
  H  H141  1  -0.484800  1.232600  -0.167300  1
  H  H142  1  -0.356700  1.301200  -0.202200  1
  H  H143  1  -0.253200  1.247300  -0.148400  1
  H  H144  1  -0.211200  0.811200  -0.171400  1
  H  H145  1  -0.263600  1.068300  -0.061600  1
  H  H146  1  -0.182800  0.692400  -0.104500  1
  H  H147  1  -0.221700  0.830700  0.071900  1
  H  H148  1  0.202400  0.491600  0.065800  1
  H  H149  1  0.202300  0.481900  0.134000  1
  H  H150  1  0.244700  0.577700  0.106100  1
  H  H151  1  -0.389600  0.461700  0.067200  1
  H  H152  1  -0.227500  0.398900  0.101600  1
  H  H153  1  -0.203400  0.424500  0.036000  1
  H  H154  1  -0.106000  0.649000  0.174700  1
  H  H155  1  -0.139300  0.548400  0.196500  1
  H  H156  1  -0.319800  0.602300  0.163400  1
  H  H157  1  -0.456700  0.421800  0.190900  1
  H  H158  1  -0.518100  0.317700  0.191000  1
  H  H159  1  -0.614700  0.386800  0.233300  1
  H  H160  1  0.053600  0.314100  0.268100  1
  H  H161  1  -0.070800  0.267600  0.214700  1
  H  H162  1  -0.020000  0.372800  0.212900  1
  H  H163  1  -0.484800  0.267400  0.332700  1
  H  H164  1  -0.356700  0.198800  0.297800  1
  H  H165  1  -0.253200  0.252700  0.351600  1
  H  H166  1  -0.211200  0.688800  0.328600  1
  H  H167  1  -0.263600  0.431700  0.438400  1
  H  H168  1  -0.182800  0.807600  0.395500  1
  H  H169  1  -0.221700  0.669300  0.571900  1
  H  H170  1  0.202400  1.008400  0.565800  1
  H  H171  1  0.202300  1.018100  0.634000  1
  H  H172  1  0.244700  0.922300  0.606100  1
  H  H173  1  -0.389600  1.038300  0.567200  1
  H  H174  1  -0.227500  1.101100  0.601600  1
  H  H175  1  -0.203400  1.075500  0.536000  1
  H  H176  1  -0.106000  0.851000  0.674700  1
  H  H177  1  -0.139300  0.951600  0.696500  1
  H  H178  1  -0.319800  0.897700  0.663400  1
  H  H179  1  0.456700  -0.078200  1.309100  1
  H  H180  1  0.518100  -0.182300  1.309000  1
  H  H181  1  0.614700  -0.113200  1.266700  1
  H  H182  1  -0.053600  -0.185900  1.231900  1
  H  H183  1  0.070800  -0.232400  1.285300  1
  H  H184  1  0.020000  -0.127200  1.287100  1
  H  H185  1  0.484800  -0.232600  1.167300  1
  H  H186  1  0.356700  -0.301200  1.202200  1
  H  H187  1  0.253200  -0.247300  1.148400  1
  H  H188  1  0.211200  0.188800  1.171400  1
  H  H189  1  0.263600  -0.068300  1.061600  1
  H  H190  1  0.182800  0.307600  1.104500  1
  H  H191  1  0.221700  0.169300  0.928100  1
  H  H192  1  -0.202400  0.508400  0.934200  1
  H  H193  1  -0.202300  0.518100  0.866000  1
  H  H194  1  -0.244700  0.422300  0.893900  1
  H  H195  1  0.389600  0.538300  0.932800  1
  H  H196  1  0.227500  0.601100  0.898400  1
  H  H197  1  0.203400  0.575500  0.964000  1
  H  H198  1  0.106000  0.351000  0.825300  1
  H  H199  1  0.139300  0.451600  0.803500  1
  H  H200  1  0.319800  0.397700  0.836600  1
  Si  Si201  1  0.289800  0.651280  0.729600  1.0
  Si  Si202  1  0.102300  0.047170  0.403970  1
  Si  Si203  1  -0.289800  1.151280  -0.229600  1.0
  Si  Si204  1  -0.102300  0.547170  0.096030  1
  Si  Si205  1  -0.289800  0.348720  0.270400  1.0
  Si  Si206  1  -0.102300  0.952830  0.596030  1
  Si  Si207  1  0.289800  -0.151280  1.229600  1.0
  Si  Si208  1  0.102300  0.452830  0.903970  1
