# generated using pymatgen
data_SiH18C17SI
_symmetry_space_group_name_H-M   'P 1'
_cell_length_a   7.35380000
_cell_length_b   10.34750000
_cell_length_c   11.16810000
_cell_angle_alpha   94.80900000
_cell_angle_beta   90.20000000
_cell_angle_gamma   98.76200000
_symmetry_Int_Tables_number   1
_chemical_formula_structural   SiH18C17SI
_chemical_formula_sum   'Si2 H36 C34 S2 I2'
_cell_volume   836.83070650
_cell_formula_units_Z   2
loop_
 _symmetry_equiv_pos_site_id
 _symmetry_equiv_pos_as_xyz
  1  'x, y, z'
loop_
 _atom_site_type_symbol
 _atom_site_label
 _atom_site_symmetry_multiplicity
 _atom_site_fract_x
 _atom_site_fract_y
 _atom_site_fract_z
 _atom_site_occupancy
  C  C1  1  0.842100  0.303000  0.290700  1
  C  C2  1  0.635500  0.042900  0.343700  1
  C  C3  1  0.902500  0.201600  0.532200  1
  C  C4  1  0.540800  0.301200  0.469700  1
  C  C5  1  0.898700  0.361400  0.205500  1
  C  C6  1  0.775800  -0.024000  0.271700  1
  C  C7  1  0.991400  0.332500  0.594700  1
  C  C8  1  0.390800  0.306700  0.375100  1
  C  C9  1  0.953400  0.432300  0.103100  1
  C  C10  1  0.843100  0.524400  0.068600  1
  C  C11  1  1.108500  0.406500  0.036700  1
  C  C12  1  0.689200  0.551200  0.135900  1
  C  C13  1  0.891500  0.593500  -0.036700  1
  C  C14  1  1.156900  0.475600  -0.068600  1
  C  C15  1  1.219400  0.314200  0.070800  1
  C  C16  1  0.586600  0.641500  0.101500  1
  C  C17  1  1.046600  0.567700  -0.103100  1
  C  C18  1  0.780600  0.685800  -0.070800  1
  C  C19  1  1.310800  0.448800  -0.135900  1
  C  C20  1  1.367800  0.290100  0.004000  1
  C  C21  1  0.632200  0.709900  -0.004000  1
  C  C22  1  1.101300  0.638600  -0.205500  1
  C  C23  1  1.413400  0.358500  -0.101500  1
  C  C24  1  1.498800  0.203400  0.013000  1
  C  C25  1  0.501200  0.796600  -0.013000  1
  C  C26  1  0.375000  0.799000  0.075000  1
  C  C27  1  1.157900  0.697000  -0.290700  1
  C  C28  1  1.625000  0.201000  -0.075000  1
  C  C29  1  1.364500  0.957100  -0.343700  1
  C  C30  1  1.097500  0.798400  -0.532200  1
  C  C31  1  1.459200  0.698800  -0.469700  1
  C  C32  1  1.224200  1.024000  -0.271700  1
  C  C33  1  1.008600  0.667500  -0.594700  1
  C  C34  1  1.609200  0.693300  -0.375100  1
  H  H35  1  0.589100  -0.012300  0.408700  1
  H  H36  1  0.529800  0.048800  0.290400  1
  H  H37  1  0.841700  0.147000  0.593600  1
  H  H38  1  1.000800  0.155900  0.496500  1
  H  H39  1  0.483500  0.257800  0.538900  1
  H  H40  1  0.594800  0.392000  0.499000  1
  H  H41  1  0.811500  0.024300  0.201500  1
  H  H42  1  0.721400  -0.114300  0.245000  1
  H  H43  1  0.884700  -0.024900  0.322200  1
  H  H44  1  1.057400  0.386200  0.535700  1
  H  H45  1  1.078100  0.317100  0.656900  1
  H  H46  1  0.896000  0.378400  0.631800  1
  H  H47  1  0.447200  0.344900  0.304200  1
  H  H48  1  0.302100  0.361000  0.408700  1
  H  H49  1  0.327400  0.217800  0.351900  1
  H  H50  1  0.656800  0.506300  0.205300  1
  H  H51  1  1.190200  0.268900  0.140400  1
  H  H52  1  0.809800  0.731100  -0.140400  1
  H  H53  1  1.343200  0.493700  -0.205300  1
  H  H54  1  1.497500  0.149300  0.077800  1
  H  H55  1  0.502500  0.850700  -0.077800  1
  H  H56  1  1.410900  1.012300  -0.408700  1
  H  H57  1  1.470200  0.951200  -0.290400  1
  H  H58  1  1.158300  0.853000  -0.593600  1
  H  H59  1  0.999200  0.844100  -0.496500  1
  H  H60  1  1.516500  0.742200  -0.538900  1
  H  H61  1  1.405200  0.608000  -0.499000  1
  H  H62  1  1.188500  0.975700  -0.201500  1
  H  H63  1  1.278600  1.114300  -0.245000  1
  H  H64  1  1.115300  1.024900  -0.322200  1
  H  H65  1  0.942600  0.613800  -0.535700  1
  H  H66  1  0.921900  0.682900  -0.656900  1
  H  H67  1  1.104000  0.621600  -0.631800  1
  H  H68  1  1.552800  0.655100  -0.304200  1
  H  H69  1  1.697900  0.639000  -0.408700  1
  H  H70  1  1.672600  0.782200  -0.351900  1
  I  I71  1  0.159800  0.907080  0.095130  1
  I  I72  1  1.840200  0.092920  -0.095130  1
  S  S73  1  0.394300  0.686040  0.181290  1
  S  S74  1  1.605700  0.313960  -0.181290  1
  Si  Si75  1  0.729750  0.211430  0.411930  1.0
  Si  Si76  1  1.270250  0.788570  -0.411930  1
