# generated using pymatgen
data_SiH25C21
_symmetry_space_group_name_H-M   'P 1'
_cell_length_a   10.61770000
_cell_length_b   13.61710000
_cell_length_c   14.08290000
_cell_angle_alpha   75.15400000
_cell_angle_beta   73.91500000
_cell_angle_gamma   71.12300000
_symmetry_Int_Tables_number   1
_chemical_formula_structural   SiH25C21
_chemical_formula_sum   'Si4 H100 C84'
_cell_volume   1819.86238341
_cell_formula_units_Z   4
loop_
 _symmetry_equiv_pos_site_id
 _symmetry_equiv_pos_as_xyz
  1  'x, y, z'
loop_
 _atom_site_type_symbol
 _atom_site_label
 _atom_site_symmetry_multiplicity
 _atom_site_fract_x
 _atom_site_fract_y
 _atom_site_fract_z
 _atom_site_occupancy
  C  C1  1  0.177600  0.095300  0.167500  1
  C  C2  1  0.192100  0.103000  0.375800  1
  C  C3  1  0.449800  0.073800  0.201900  1
  C  C4  1  0.223800  0.287700  0.200000  1
  C  C5  1  0.124300  0.066200  0.119300  1
  C  C6  1  0.039800  0.152400  0.402800  1
  C  C7  1  0.230600  -0.016700  0.410600  1
  C  C8  1  0.530300  0.088700  0.269900  1
  C  C9  1  0.506600  0.106000  0.090400  1
  C  C10  1  0.278000  0.344700  0.246000  1
  C  C11  1  0.061800  0.033500  0.059300  1
  C  C12  1  0.092000  0.063900  -0.046700  1
  C  C13  1  -0.030700  -0.030100  0.107500  1
  C  C14  1  0.181300  0.127600  -0.095400  1
  C  C15  1  0.030700  0.030100  -0.107500  1
  C  C16  1  -0.092000  -0.063900  0.046700  1
  C  C17  1  -0.061600  -0.061500  0.212500  1
  C  C18  1  0.210800  0.158500  -0.199100  1
  C  C19  1  -0.061800  -0.033500  -0.059300  1
  C  C20  1  0.061600  0.061500  -0.212500  1
  C  C21  1  -0.181300  -0.127600  0.095400  1
  C  C22  1  -0.149200  -0.125100  0.259600  1
  C  C23  1  0.302000  0.223100  -0.249000  1
  C  C24  1  0.149200  0.125100  -0.259600  1
  C  C25  1  -0.124300  -0.066200  -0.119300  1
  C  C26  1  -0.210800  -0.158500  0.199100  1
  C  C27  1  -0.178900  -0.159400  0.365900  1
  C  C28  1  0.327000  0.253300  -0.350100  1
  C  C29  1  0.178900  0.159400  -0.365900  1
  C  C30  1  -0.177600  -0.095300  -0.167500  1
  C  C31  1  -0.302000  -0.223100  0.249000  1
  C  C32  1  -0.264100  -0.221100  0.409600  1
  C  C33  1  0.264100  0.221100  -0.409600  1
  C  C34  1  -0.327000  -0.253300  0.350100  1
  C  C35  1  -0.192100  -0.103000  -0.375800  1
  C  C36  1  -0.449800  -0.073800  -0.201900  1
  C  C37  1  -0.223800  -0.287700  -0.200000  1
  C  C38  1  -0.039800  -0.152400  -0.402800  1
  C  C39  1  -0.230600  0.016700  -0.410600  1
  C  C40  1  -0.530300  -0.088700  -0.269900  1
  C  C41  1  -0.506600  -0.106000  -0.090400  1
  C  C42  1  -0.278000  -0.344700  -0.246000  1
  C  C43  1  -0.181200  -0.554800  0.307600  1
  C  C44  1  -0.153800  -0.677500  0.148900  1
  C  C45  1  -0.408100  -0.646300  0.322000  1
  C  C46  1  -0.357000  -0.454600  0.156000  1
  C  C47  1  -0.126500  -0.536900  0.362700  1
  C  C48  1  -0.222300  -0.737400  0.113200  1
  C  C49  1  -0.062400  -0.623600  0.059700  1
  C  C50  1  -0.344300  -0.750700  0.386900  1
  C  C51  1  -0.513100  -0.571300  0.388100  1
  C  C52  1  -0.445200  -0.463300  0.090500  1
  C  C53  1  -0.062600  -0.518600  0.431500  1
  C  C54  1  -0.088700  -0.567300  0.533900  1
  C  C55  1  0.025600  -0.451500  0.396100  1
  C  C56  1  -0.175400  -0.633800  0.570400  1
  C  C57  1  -0.025600  -0.548500  0.603900  1
  C  C58  1  0.088700  -0.432700  0.466100  1
  C  C59  1  0.054400  -0.402900  0.294900  1
  C  C60  1  -0.203700  -0.680200  0.670500  1
  C  C61  1  0.062600  -0.481400  0.568500  1
  C  C62  1  -0.054400  -0.597100  0.705100  1
  C  C63  1  0.175400  -0.366200  0.429600  1
  C  C64  1  0.142000  -0.338800  0.259300  1
  C  C65  1  -0.294100  -0.747200  0.708800  1
  C  C66  1  -0.142000  -0.661200  0.740700  1
  C  C67  1  0.126500  -0.463100  0.637300  1
  C  C68  1  0.203700  -0.319800  0.329500  1
  C  C69  1  0.172800  -0.290800  0.156500  1
  C  C70  1  -0.319600  -0.790700  0.806200  1
  C  C71  1  -0.172800  -0.709200  0.843500  1
  C  C72  1  0.181200  -0.445200  0.692400  1
  C  C73  1  0.294100  -0.252800  0.291200  1
  C  C74  1  0.258400  -0.228300  0.124300  1
  C  C75  1  -0.258400  -0.771700  0.875700  1
  C  C76  1  0.319600  -0.209300  0.193800  1
  C  C77  1  0.153800  -0.322500  0.851100  1
  C  C78  1  0.408100  -0.353700  0.678000  1
  C  C79  1  0.357000  -0.545400  0.844000  1
  C  C80  1  0.222300  -0.262600  0.886800  1
  C  C81  1  0.062400  -0.376400  0.940300  1
  C  C82  1  0.344300  -0.249300  0.613100  1
  C  C83  1  0.513100  -0.428700  0.611900  1
  C  C84  1  0.445200  -0.536700  0.909500  1
  H  H85  1  0.235400  0.132400  0.412700  1
  H  H86  1  0.458800  -0.003600  0.214000  1
  H  H87  1  0.256300  0.304600  0.126200  1
  H  H88  1  0.123400  0.315900  0.214100  1
  H  H89  1  -0.006100  0.128600  0.364900  1
  H  H90  1  0.020800  0.229500  0.385800  1
  H  H91  1  0.006300  0.131100  0.475000  1
  H  H92  1  0.202300  -0.033400  0.483900  1
  H  H93  1  0.329500  -0.045200  0.390600  1
  H  H94  1  0.184800  -0.048100  0.379600  1
  H  H95  1  0.628000  0.061600  0.243600  1
  H  H96  1  0.505300  0.050000  0.338100  1
  H  H97  1  0.508800  0.163900  0.271500  1
  H  H98  1  0.488600  0.183000  0.073200  1
  H  H99  1  0.462700  0.082400  0.051000  1
  H  H100  1  0.605000  0.073400  0.075200  1
  H  H101  1  0.251000  0.326700  0.319400  1
  H  H102  1  0.242000  0.420800  0.224100  1
  H  H103  1  0.377600  0.325100  0.225700  1
  H  H104  1  0.222500  0.150000  -0.055900  1
  H  H105  1  -0.021600  -0.038700  0.252500  1
  H  H106  1  0.021600  0.038700  -0.252500  1
  H  H107  1  -0.222500  -0.150000  0.055900  1
  H  H108  1  0.345300  0.244800  -0.210500  1
  H  H109  1  -0.138100  -0.138300  0.406700  1
  H  H110  1  0.387200  0.296400  -0.381700  1
  H  H111  1  0.138100  0.138300  -0.406700  1
  H  H112  1  -0.345300  -0.244800  0.210500  1
  H  H113  1  -0.282200  -0.243300  0.480500  1
  H  H114  1  0.282200  0.243300  -0.480500  1
  H  H115  1  -0.387200  -0.296400  0.381700  1
  H  H116  1  -0.235400  -0.132400  -0.412700  1
  H  H117  1  -0.458800  0.003600  -0.214000  1
  H  H118  1  -0.256300  -0.304600  -0.126200  1
  H  H119  1  -0.123400  -0.315900  -0.214100  1
  H  H120  1  0.006100  -0.128600  -0.364900  1
  H  H121  1  -0.020800  -0.229500  -0.385800  1
  H  H122  1  -0.006300  -0.131100  -0.475000  1
  H  H123  1  -0.202300  0.033400  -0.483900  1
  H  H124  1  -0.329500  0.045200  -0.390600  1
  H  H125  1  -0.184800  0.048100  -0.379600  1
  H  H126  1  -0.628000  -0.061600  -0.243600  1
  H  H127  1  -0.505300  -0.050000  -0.338100  1
  H  H128  1  -0.508800  -0.163900  -0.271500  1
  H  H129  1  -0.488600  -0.183000  -0.073200  1
  H  H130  1  -0.462700  -0.082400  -0.051000  1
  H  H131  1  -0.605000  -0.073400  -0.075200  1
  H  H132  1  -0.251000  -0.326700  -0.319400  1
  H  H133  1  -0.242000  -0.420800  -0.224100  1
  H  H134  1  -0.377600  -0.325100  -0.225700  1
  H  H135  1  -0.092000  -0.730800  0.191200  1
  H  H136  1  -0.458300  -0.663700  0.280900  1
  H  H137  1  -0.414100  -0.406200  0.202900  1
  H  H138  1  -0.284300  -0.422800  0.112200  1
  H  H139  1  -0.289300  -0.687700  0.075500  1
  H  H140  1  -0.268500  -0.779800  0.171300  1
  H  H141  1  -0.154100  -0.784000  0.069600  1
  H  H142  1  0.009300  -0.677500  0.025900  1
  H  H143  1  -0.020900  -0.583000  0.084300  1
  H  H144  1  -0.117500  -0.576100  0.012100  1
  H  H145  1  -0.295600  -0.736700  0.429600  1
  H  H146  1  -0.280400  -0.799100  0.343200  1
  H  H147  1  -0.416300  -0.782700  0.429200  1
  H  H148  1  -0.580500  -0.606900  0.432800  1
  H  H149  1  -0.559000  -0.508300  0.345600  1
  H  H150  1  -0.467400  -0.550600  0.428400  1
  H  H151  1  -0.387800  -0.505000  0.039100  1
  H  H152  1  -0.489400  -0.392500  0.057900  1
  H  H153  1  -0.514800  -0.497900  0.132700  1
  H  H154  1  -0.216000  -0.647300  0.524700  1
  H  H155  1  0.012100  -0.414400  0.249000  1
  H  H156  1  -0.012100  -0.585600  0.751000  1
  H  H157  1  0.216000  -0.352700  0.475300  1
  H  H158  1  -0.336300  -0.760700  0.664000  1
  H  H159  1  0.132600  -0.302800  0.109600  1
  H  H160  1  -0.379300  -0.834900  0.829500  1
  H  H161  1  -0.132600  -0.697200  0.890400  1
  H  H162  1  0.336300  -0.239300  0.336000  1
  H  H163  1  0.277900  -0.197000  0.055300  1
  H  H164  1  -0.277900  -0.803000  0.944700  1
  H  H165  1  0.379300  -0.165100  0.170500  1
  H  H166  1  0.092000  -0.269200  0.808800  1
  H  H167  1  0.458300  -0.336300  0.719100  1
  H  H168  1  0.414100  -0.593800  0.797100  1
  H  H169  1  0.284300  -0.577200  0.887800  1
  H  H170  1  0.289300  -0.312300  0.924500  1
  H  H171  1  0.268500  -0.220200  0.828700  1
  H  H172  1  0.154100  -0.216000  0.930400  1
  H  H173  1  -0.009300  -0.322500  0.974100  1
  H  H174  1  0.020900  -0.417000  0.915700  1
  H  H175  1  0.117500  -0.423900  0.987900  1
  H  H176  1  0.295600  -0.263300  0.570400  1
  H  H177  1  0.280400  -0.200900  0.656800  1
  H  H178  1  0.416300  -0.217300  0.570800  1
  H  H179  1  0.580500  -0.393100  0.567200  1
  H  H180  1  0.559000  -0.491700  0.654400  1
  H  H181  1  0.467400  -0.449400  0.571600  1
  H  H182  1  0.387800  -0.495000  0.960900  1
  H  H183  1  0.489400  -0.607500  0.942100  1
  H  H184  1  0.514800  -0.502100  0.867300  1
  Si  Si185  1  0.264860  0.139890  0.237840  1.0
  Si  Si186  1  -0.264860  -0.139890  -0.237840  1
  Si  Si187  1  -0.275830  -0.584130  0.231130  1.0
  Si  Si188  1  0.275830  -0.415870  0.768870  1
