# generated using pymatgen
data_SiH38C30SF
_symmetry_space_group_name_H-M   'P 1'
_cell_length_a   9.01850000
_cell_length_b   11.14980000
_cell_length_c   13.69600000
_cell_angle_alpha   84.06200000
_cell_angle_beta   89.31600000
_cell_angle_gamma   81.54100000
_symmetry_Int_Tables_number   1
_chemical_formula_structural   SiH38C30SF
_chemical_formula_sum   'Si2 H76 C60 S2 F2'
_cell_volume   1354.89548492
_cell_formula_units_Z   2
loop_
 _symmetry_equiv_pos_site_id
 _symmetry_equiv_pos_as_xyz
  1  'x, y, z'
loop_
 _atom_site_type_symbol
 _atom_site_label
 _atom_site_symmetry_multiplicity
 _atom_site_fract_x
 _atom_site_fract_y
 _atom_site_fract_z
 _atom_site_occupancy
  C  C1  1  0.503900  0.752800  0.692200  1
  C  C2  1  0.465000  0.784300  0.904000  1
  C  C3  1  0.365000  0.998800  0.748600  1
  C  C4  1  0.699700  0.916200  0.770600  1
  C  C5  1  0.502400  0.678600  0.634700  1
  C  C6  1  0.311900  0.740400  0.895100  1
  C  C7  1  0.587100  0.685300  0.950700  1
  C  C8  1  0.352400  1.091500  0.823900  1
  C  C9  1  0.383700  1.056800  0.645100  1
  C  C10  1  0.824900  0.813800  0.755000  1
  C  C11  1  0.755000  0.957200  0.872500  1
  C  C12  1  0.501400  0.588900  0.567000  1
  C  C13  1  0.246300  0.690400  0.991600  1
  C  C14  1  0.228700  1.193800  0.811200  1
  C  C15  1  0.978900  0.851400  0.725900  1
  C  C16  1  0.622200  0.568500  0.501000  1
  C  C17  1  0.379500  0.521900  0.567700  1
  C  C18  1  0.092900  0.650000  0.974500  1
  C  C19  1  0.084100  1.149000  0.834400  1
  C  C20  1  0.960100  0.947000  0.636000  1
  C  C21  1  0.745100  0.632100  0.500100  1
  C  C22  1  0.620500  0.478100  0.432300  1
  C  C23  1  0.377800  0.431500  0.499000  1
  C  C24  1  0.259300  0.540700  0.632900  1
  C  C25  1  0.864900  0.612200  0.436200  1
  C  C26  1  0.498600  0.411100  0.433000  1
  C  C27  1  0.740700  0.459300  0.367100  1
  C  C28  1  0.254900  0.367900  0.499900  1
  C  C29  1  0.137800  0.477000  0.633400  1
  C  C30  1  0.989300  0.676400  0.436900  1
  C  C31  1  0.862200  0.523000  0.366600  1
  C  C32  1  0.497600  0.321400  0.365300  1
  C  C33  1  0.135100  0.387800  0.563800  1
  C  C34  1  0.015900  0.497600  0.699100  1
  C  C35  1  1.104000  0.654300  0.373100  1
  C  C36  1  0.984100  0.502400  0.300900  1
  C  C37  1  0.496100  0.247200  0.307800  1
  C  C38  1  0.010700  0.323600  0.563100  1
  C  C39  1  -0.101800  0.434100  0.696500  1
  C  C40  1  1.101800  0.565900  0.303500  1
  C  C41  1  -0.104000  0.345700  0.626900  1
  C  C42  1  -0.233000  0.447000  0.756200  1
  C  C43  1  1.233000  0.553000  0.243800  1
  C  C44  1  1.325500  0.631300  0.264300  1
  C  C45  1  0.535000  0.215700  0.096000  1
  C  C46  1  0.635000  0.001200  0.251400  1
  C  C47  1  0.300300  0.083800  0.229400  1
  C  C48  1  -0.325500  0.368700  0.735700  1
  C  C49  1  0.688100  0.259600  0.104900  1
  C  C50  1  0.412900  0.314700  0.049300  1
  C  C51  1  0.647600  -0.091500  0.176100  1
  C  C52  1  0.616300  -0.056800  0.354900  1
  C  C53  1  0.175100  0.186200  0.245000  1
  C  C54  1  0.245000  0.042800  0.127500  1
  C  C55  1  0.753700  0.309600  0.008400  1
  C  C56  1  0.771300  -0.193800  0.188800  1
  C  C57  1  0.021100  0.148600  0.274100  1
  C  C58  1  0.907100  0.350000  0.025500  1
  C  C59  1  0.915900  -0.149000  0.165600  1
  C  C60  1  0.039900  0.053000  0.364000  1
  F  F61  1  1.458600  0.645600  0.224400  1
  F  F62  1  -0.458600  0.354400  0.775600  1
  H  H63  1  0.449600  0.848700  0.950600  1
  H  H64  1  0.266800  0.967100  0.749600  1
  H  H65  1  0.697500  0.983900  0.716500  1
  H  H66  1  0.239600  0.809500  0.865100  1
  H  H67  1  0.322600  0.676100  0.849800  1
  H  H68  1  0.566000  0.668000  1.020700  1
  H  H69  1  0.684800  0.713700  0.943000  1
  H  H70  1  0.588600  0.611000  0.918000  1
  H  H71  1  0.342700  1.047400  0.889600  1
  H  H72  1  0.447700  1.125800  0.823500  1
  H  H73  1  0.298900  1.121000  0.628400  1
  H  H74  1  0.387300  0.994700  0.599100  1
  H  H75  1  0.477200  1.092100  0.640800  1
  H  H76  1  0.793000  0.767300  0.703300  1
  H  H77  1  0.837900  0.758000  0.816400  1
  H  H78  1  0.767600  0.887000  0.922600  1
  H  H79  1  0.680700  1.021800  0.894600  1
  H  H80  1  0.851500  0.987700  0.862000  1
  H  H81  1  0.234200  0.754000  1.037600  1
  H  H82  1  0.316400  0.620000  1.021700  1
  H  H83  1  0.226900  1.232300  0.742700  1
  H  H84  1  0.244100  1.255900  0.855300  1
  H  H85  1  1.021300  0.885700  0.781400  1
  H  H86  1  1.049000  0.779000  0.710300  1
  H  H87  1  0.014100  0.721000  0.972300  1
  H  H88  1  0.072500  0.589600  1.028200  1
  H  H89  1  0.094500  0.614000  0.912100  1
  H  H90  1  0.052600  1.110100  0.778700  1
  H  H91  1  0.007800  1.217700  0.847100  1
  H  H92  1  0.096300  1.089600  0.892800  1
  H  H93  1  0.922500  0.911500  0.580400  1
  H  H94  1  1.057200  0.973000  0.619000  1
  H  H95  1  0.888600  1.017600  0.651300  1
  H  H96  1  0.746700  0.691300  0.545200  1
  H  H97  1  0.260900  0.599300  0.678400  1
  H  H98  1  0.739100  0.400700  0.321600  1
  H  H99  1  0.253300  0.308700  0.454800  1
  H  H100  1  0.992500  0.735000  0.482200  1
  H  H101  1  0.016500  0.555700  0.745100  1
  H  H102  1  0.983500  0.444300  0.254900  1
  H  H103  1  0.007500  0.265000  0.517800  1
  H  H104  1  -0.252500  0.503400  0.803900  1
  H  H105  1  1.252500  0.496600  0.196100  1
  H  H106  1  0.550400  0.151300  0.049400  1
  H  H107  1  0.733200  0.032900  0.250400  1
  H  H108  1  0.302500  0.016100  0.283500  1
  H  H109  1  0.760400  0.190500  0.134900  1
  H  H110  1  0.677400  0.323900  0.150200  1
  H  H111  1  0.434000  0.332000  -0.020700  1
  H  H112  1  0.315200  0.286300  0.057000  1
  H  H113  1  0.411400  0.389000  0.082000  1
  H  H114  1  0.657300  -0.047400  0.110400  1
  H  H115  1  0.552300  -0.125800  0.176500  1
  H  H116  1  0.701100  -0.121000  0.371600  1
  H  H117  1  0.612700  0.005300  0.400900  1
  H  H118  1  0.522800  -0.092100  0.359200  1
  H  H119  1  0.207000  0.232700  0.296700  1
  H  H120  1  0.162100  0.242000  0.183600  1
  H  H121  1  0.232400  0.113000  0.077400  1
  H  H122  1  0.319300  -0.021800  0.105400  1
  H  H123  1  0.148500  0.012300  0.138000  1
  H  H124  1  0.765800  0.246000  -0.037600  1
  H  H125  1  0.683600  0.380000  -0.021700  1
  H  H126  1  0.773100  -0.232300  0.257300  1
  H  H127  1  0.755900  -0.255900  0.144700  1
  H  H128  1  -0.021300  0.114300  0.218600  1
  H  H129  1  -0.049000  0.221000  0.289700  1
  H  H130  1  0.985900  0.279000  0.027700  1
  H  H131  1  0.927500  0.410400  -0.028200  1
  H  H132  1  0.905500  0.386000  0.087900  1
  H  H133  1  0.947400  -0.110100  0.221300  1
  H  H134  1  0.992200  -0.217700  0.152900  1
  H  H135  1  0.903700  -0.089600  0.107200  1
  H  H136  1  0.077500  0.088500  0.419600  1
  H  H137  1  -0.057200  0.027000  0.381000  1
  H  H138  1  0.111400  -0.017600  0.348700  1
  S  S139  1  1.264900  0.723700  0.357550  1
  S  S140  1  -0.264900  0.276300  0.642450  1
  Si  Si141  1  0.512410  0.862190  0.783600  1.0
  Si  Si142  1  0.487590  0.137810  0.216400  1
