# generated using pymatgen
data_SiH33C25
_symmetry_space_group_name_H-M   'P 1'
_cell_length_a   11.74760000
_cell_length_b   12.57100000
_cell_length_c   15.14120000
_cell_angle_alpha   90.00000000
_cell_angle_beta   105.97700000
_cell_angle_gamma   90.00000000
_symmetry_Int_Tables_number   1
_chemical_formula_structural   SiH33C25
_chemical_formula_sum   'Si4 H132 C100'
_cell_volume   2149.66538134
_cell_formula_units_Z   4
loop_
 _symmetry_equiv_pos_site_id
 _symmetry_equiv_pos_as_xyz
  1  'x, y, z'
loop_
 _atom_site_type_symbol
 _atom_site_label
 _atom_site_symmetry_multiplicity
 _atom_site_fract_x
 _atom_site_fract_y
 _atom_site_fract_z
 _atom_site_occupancy
  C  C1  1  0.789700  0.743500  0.911300  1
  C  C2  1  0.543700  0.686300  0.888200  1
  C  C3  1  0.748400  0.507400  0.915200  1
  C  C4  1  0.663200  0.639300  0.736400  1
  C  C5  1  0.854200  0.818600  0.939400  1
  C  C6  1  0.556100  0.709400  0.988400  1
  C  C7  1  0.438000  0.611000  0.852000  1
  C  C8  1  0.804800  0.507100  1.015200  1
  C  C9  1  0.665400  0.414600  0.880100  1
  C  C10  1  0.761600  0.635700  0.692800  1
  C  C11  1  0.586000  0.739600  0.701100  1
  C  C12  1  0.928400  0.909000  0.970600  1
  C  C13  1  0.462000  0.792000  1.002000  1
  C  C14  1  0.874600  0.407900  1.053900  1
  C  C15  1  0.829400  0.540100  0.690300  1
  C  C16  1  1.023100  0.930300  0.932700  1
  C  C17  1  0.903900  0.977000  1.037500  1
  C  C18  1  1.047700  0.864300  0.865300  1
  C  C19  1  1.096100  1.023000  0.962500  1
  C  C20  1  0.976900  1.069700  1.067300  1
  C  C21  1  0.809600  0.958000  1.075900  1
  C  C22  1  1.140100  0.884400  0.827400  1
  C  C23  1  1.071600  1.091000  1.029400  1
  C  C24  1  1.190400  1.042000  0.924100  1
  C  C25  1  0.952300  1.135700  1.134700  1
  C  C26  1  0.785600  1.024100  1.141500  1
  C  C27  1  1.165700  0.818000  0.758800  1
  C  C28  1  1.214400  0.975900  0.858500  1
  C  C29  1  1.145800  1.181400  1.060600  1
  C  C30  1  0.859900  1.115600  1.172600  1
  C  C31  1  0.689800  1.005500  1.180700  1
  C  C32  1  1.257600  0.839100  0.723700  1
  C  C33  1  1.310200  0.994500  0.819300  1
  C  C34  1  1.210300  1.256500  1.088700  1
  C  C35  1  0.834300  1.182000  1.241200  1
  C  C36  1  0.669000  1.070800  1.245400  1
  C  C37  1  1.331000  0.929200  0.754600  1
  C  C38  1  0.742400  1.160900  1.276300  1
  C  C39  1  1.456300  1.313700  1.111800  1
  C  C40  1  1.251600  1.492600  1.084800  1
  C  C41  1  1.336800  1.360700  1.263600  1
  C  C42  1  1.443900  1.290600  1.011600  1
  C  C43  1  1.562000  1.389000  1.148000  1
  C  C44  1  1.195200  1.492900  0.984800  1
  C  C45  1  1.334600  1.585400  1.119900  1
  C  C46  1  1.238400  1.364300  1.307200  1
  C  C47  1  1.414000  1.260400  1.298900  1
  C  C48  1  1.538000  1.208000  0.998000  1
  C  C49  1  1.125400  1.592100  0.946100  1
  C  C50  1  1.170600  1.459900  1.309700  1
  C  C51  1  0.710300  1.243500  0.588700  1
  C  C52  1  0.956300  1.186300  0.611800  1
  C  C53  1  0.751600  1.007400  0.584800  1
  C  C54  1  0.836800  1.139300  0.763600  1
  C  C55  1  0.645800  1.318600  0.560600  1
  C  C56  1  0.943900  1.209400  0.511600  1
  C  C57  1  1.062000  1.111000  0.648000  1
  C  C58  1  0.695200  1.007100  0.484800  1
  C  C59  1  0.834600  0.914600  0.619900  1
  C  C60  1  0.738400  1.135700  0.807200  1
  C  C61  1  0.914000  1.239600  0.798900  1
  C  C62  1  0.571600  1.409000  0.529400  1
  C  C63  1  1.038000  1.292000  0.498000  1
  C  C64  1  0.625400  0.907900  0.446100  1
  C  C65  1  0.670600  1.040100  0.809700  1
  C  C66  1  0.476900  1.430300  0.567300  1
  C  C67  1  0.596100  1.477000  0.462500  1
  C  C68  1  0.452300  1.364300  0.634700  1
  C  C69  1  0.403900  1.523000  0.537500  1
  C  C70  1  0.523100  1.569700  0.432700  1
  C  C71  1  0.690400  1.458000  0.424100  1
  C  C72  1  0.359900  1.384400  0.672600  1
  C  C73  1  0.428400  1.591000  0.470600  1
  C  C74  1  0.309600  1.542000  0.575900  1
  C  C75  1  0.547700  1.635700  0.365300  1
  C  C76  1  0.714400  1.524100  0.358500  1
  C  C77  1  0.334300  1.318000  0.741200  1
  C  C78  1  0.285600  1.475900  0.641500  1
  C  C79  1  0.354200  1.681400  0.439400  1
  C  C80  1  0.640100  1.615600  0.327400  1
  C  C81  1  0.810200  1.505500  0.319300  1
  C  C82  1  0.242400  1.339100  0.776300  1
  C  C83  1  0.189800  1.494500  0.680700  1
  C  C84  1  0.289700  1.756500  0.411300  1
  C  C85  1  0.665700  1.682000  0.258800  1
  C  C86  1  0.831000  1.570800  0.254600  1
  C  C87  1  0.169000  1.429200  0.745400  1
  C  C88  1  0.757600  1.660900  0.223700  1
  C  C89  1  0.043700  1.813700  0.388200  1
  C  C90  1  0.248400  1.992600  0.415200  1
  C  C91  1  0.163200  1.860700  0.236400  1
  C  C92  1  0.056100  1.790600  0.488400  1
  C  C93  1  -0.062000  1.889000  0.352000  1
  C  C94  1  0.304800  1.992900  0.515200  1
  C  C95  1  0.165400  2.085400  0.380100  1
  C  C96  1  0.261600  1.864300  0.192800  1
  C  C97  1  0.086000  1.760400  0.201100  1
  C  C98  1  -0.038000  1.708000  0.502000  1
  C  C99  1  0.374600  2.092100  0.553900  1
  C  C100  1  0.329400  1.959900  0.190300  1
  H  H101  1  0.523200  0.755000  0.854400  1
  H  H102  1  0.815400  0.496300  0.887400  1
  H  H103  1  0.611700  0.576900  0.711100  1
  H  H104  1  0.636500  0.737300  1.017300  1
  H  H105  1  0.546800  0.642300  1.020000  1
  H  H106  1  0.424900  0.600400  0.785300  1
  H  H107  1  0.366800  0.641500  0.863000  1
  H  H108  1  0.454900  0.541800  0.882800  1
  H  H109  1  0.742300  0.517300  1.046900  1
  H  H110  1  0.858700  0.569000  1.030400  1
  H  H111  1  0.636700  0.418100  0.812900  1
  H  H112  1  0.598100  0.418300  0.906400  1
  H  H113  1  0.708100  0.347600  0.898200  1
  H  H114  1  0.728300  0.658800  0.628300  1
  H  H115  1  0.819000  0.691100  0.723200  1
  H  H116  1  0.519100  0.741400  0.728200  1
  H  H117  1  0.555800  0.736500  0.634000  1
  H  H118  1  0.634000  0.803800  0.718900  1
  H  H119  1  0.465000  0.796700  1.066900  1
  H  H120  1  0.382600  0.769600  0.966300  1
  H  H121  1  0.479300  0.862300  0.980100  1
  H  H122  1  0.898300  0.411300  1.121100  1
  H  H123  1  0.945400  0.403500  1.031700  1
  H  H124  1  0.825200  0.344900  1.033700  1
  H  H125  1  0.890800  0.555300  0.659500  1
  H  H126  1  0.776700  0.484500  0.656500  1
  H  H127  1  0.866500  0.515800  0.753100  1
  H  H128  1  0.999200  0.803800  0.845100  1
  H  H129  1  0.760700  0.897600  1.056000  1
  H  H130  1  1.239300  1.102400  0.944000  1
  H  H131  1  1.000800  1.196200  1.154900  1
  H  H132  1  1.117200  0.757700  0.737400  1
  H  H133  1  0.639500  0.946000  1.160700  1
  H  H134  1  1.273100  0.793600  0.678200  1
  H  H135  1  1.360500  1.054000  0.839300  1
  H  H136  1  0.882800  1.242300  1.262600  1
  H  H137  1  0.604900  1.056400  1.270500  1
  H  H138  1  1.395100  0.943600  0.729500  1
  H  H139  1  0.726900  1.206400  1.321800  1
  H  H140  1  1.476800  1.245000  1.145600  1
  H  H141  1  1.184600  1.503700  1.112600  1
  H  H142  1  1.388300  1.423100  1.288900  1
  H  H143  1  1.363500  1.262700  0.982700  1
  H  H144  1  1.453200  1.357700  0.980000  1
  H  H145  1  1.575100  1.399600  1.214700  1
  H  H146  1  1.633200  1.358500  1.137000  1
  H  H147  1  1.545100  1.458200  1.117200  1
  H  H148  1  1.257700  1.482700  0.953100  1
  H  H149  1  1.141300  1.431000  0.969600  1
  H  H150  1  1.363300  1.581900  1.187100  1
  H  H151  1  1.401900  1.581700  1.093600  1
  H  H152  1  1.291900  1.652400  1.101800  1
  H  H153  1  1.271700  1.341200  1.371700  1
  H  H154  1  1.181000  1.308900  1.276800  1
  H  H155  1  1.480900  1.258600  1.271800  1
  H  H156  1  1.444200  1.263500  1.366000  1
  H  H157  1  1.366000  1.196200  1.281100  1
  H  H158  1  1.535000  1.203300  0.933100  1
  H  H159  1  1.617400  1.230400  1.033700  1
  H  H160  1  1.520700  1.137700  1.019900  1
  H  H161  1  1.101700  1.588700  0.878900  1
  H  H162  1  1.054600  1.596500  0.968300  1
  H  H163  1  1.174800  1.655100  0.966300  1
  H  H164  1  1.109200  1.444700  1.340500  1
  H  H165  1  1.223300  1.515500  1.343500  1
  H  H166  1  1.133500  1.484200  1.246900  1
  H  H167  1  0.976800  1.255000  0.645600  1
  H  H168  1  0.684600  0.996300  0.612600  1
  H  H169  1  0.888300  1.076900  0.788900  1
  H  H170  1  0.863500  1.237300  0.482700  1
  H  H171  1  0.953200  1.142300  0.480000  1
  H  H172  1  1.075100  1.100400  0.714700  1
  H  H173  1  1.133200  1.141500  0.637000  1
  H  H174  1  1.045100  1.041800  0.617200  1
  H  H175  1  0.757700  1.017300  0.453100  1
  H  H176  1  0.641300  1.069000  0.469600  1
  H  H177  1  0.863300  0.918100  0.687100  1
  H  H178  1  0.901900  0.918300  0.593600  1
  H  H179  1  0.791900  0.847600  0.601800  1
  H  H180  1  0.771700  1.158800  0.871700  1
  H  H181  1  0.681000  1.191100  0.776800  1
  H  H182  1  0.980900  1.241400  0.771800  1
  H  H183  1  0.944200  1.236500  0.866000  1
  H  H184  1  0.866000  1.303800  0.781100  1
  H  H185  1  1.035000  1.296700  0.433100  1
  H  H186  1  1.117400  1.269600  0.533700  1
  H  H187  1  1.020700  1.362300  0.519900  1
  H  H188  1  0.601700  0.911300  0.378900  1
  H  H189  1  0.554600  0.903500  0.468300  1
  H  H190  1  0.674800  0.844900  0.466300  1
  H  H191  1  0.609200  1.055300  0.840500  1
  H  H192  1  0.723300  0.984500  0.843500  1
  H  H193  1  0.633500  1.015800  0.746900  1
  H  H194  1  0.500800  1.303800  0.654900  1
  H  H195  1  0.739300  1.397600  0.444000  1
  H  H196  1  0.260700  1.602400  0.556000  1
  H  H197  1  0.499200  1.696200  0.345100  1
  H  H198  1  0.382800  1.257700  0.762600  1
  H  H199  1  0.860500  1.446000  0.339300  1
  H  H200  1  0.226900  1.293600  0.821800  1
  H  H201  1  0.139500  1.554000  0.660700  1
  H  H202  1  0.617200  1.742300  0.237400  1
  H  H203  1  0.895100  1.556400  0.229500  1
  H  H204  1  0.104900  1.443600  0.770500  1
  H  H205  1  0.773100  1.706400  0.178200  1
  H  H206  1  0.023200  1.745000  0.354400  1
  H  H207  1  0.315400  2.003700  0.387400  1
  H  H208  1  0.111700  1.923100  0.211100  1
  H  H209  1  0.136500  1.762700  0.517300  1
  H  H210  1  0.046800  1.857700  0.520000  1
  H  H211  1  -0.075100  1.899600  0.285300  1
  H  H212  1  -0.133200  1.858500  0.363000  1
  H  H213  1  -0.045100  1.958200  0.382800  1
  H  H214  1  0.242300  1.982700  0.546900  1
  H  H215  1  0.358700  1.931000  0.530400  1
  H  H216  1  0.136700  2.081900  0.312900  1
  H  H217  1  0.098100  2.081700  0.406400  1
  H  H218  1  0.208100  2.152400  0.398200  1
  H  H219  1  0.228300  1.841200  0.128300  1
  H  H220  1  0.319000  1.808900  0.223200  1
  H  H221  1  0.019100  1.758600  0.228200  1
  H  H222  1  0.055800  1.763500  0.134000  1
  H  H223  1  0.134000  1.696200  0.218900  1
  H  H224  1  -0.035000  1.703300  0.566900  1
  H  H225  1  -0.117400  1.730400  0.466300  1
  H  H226  1  -0.020700  1.637700  0.480100  1
  H  H227  1  0.398300  2.088700  0.621100  1
  H  H228  1  0.445400  2.096500  0.531700  1
  H  H229  1  0.325200  2.155100  0.533700  1
  H  H230  1  0.390800  1.944700  0.159500  1
  H  H231  1  0.276700  2.015500  0.156500  1
  H  H232  1  0.366500  1.984200  0.253100  1
  Si  Si233  1  0.680900  0.637900  0.865930  1.0
  Si  Si234  1  1.319100  1.362100  1.134070  1
  Si  Si235  1  0.819100  1.137900  0.634070  1.0
  Si  Si236  1  0.180900  1.862100  0.365930  1
