# generated using pymatgen
data_SiH16C17SF
_symmetry_space_group_name_H-M   'P 1'
_cell_length_a   7.22740000
_cell_length_b   7.28480000
_cell_length_c   15.38960000
_cell_angle_alpha   89.63300000
_cell_angle_beta   89.35400000
_cell_angle_gamma   71.73200000
_symmetry_Int_Tables_number   1
_chemical_formula_structural   SiH16C17SF
_chemical_formula_sum   'Si2 H32 C34 S2 F2'
_cell_volume   769.37574445
_cell_formula_units_Z   2
loop_
 _symmetry_equiv_pos_site_id
 _symmetry_equiv_pos_as_xyz
  1  'x, y, z'
loop_
 _atom_site_type_symbol
 _atom_site_label
 _atom_site_symmetry_multiplicity
 _atom_site_fract_x
 _atom_site_fract_y
 _atom_site_fract_z
 _atom_site_occupancy
  C  C1  1  0.736000  0.536200  0.734570  1
  C  C2  1  1.103200  0.504500  0.834530  1
  C  C3  1  0.700800  0.752800  0.902010  1
  C  C4  1  0.799000  0.304000  0.890500  1
  C  C5  1  0.666400  0.531100  0.664140  1
  C  C6  1  1.218000  0.352400  0.771200  1
  C  C7  1  0.481700  0.821600  0.885800  1
  C  C8  1  0.924000  0.171100  0.936300  1
  C  C9  1  0.583200  0.518100  0.580960  1
  C  C10  1  0.381900  0.613100  0.567890  1
  C  C11  1  0.703000  0.408000  0.514400  1
  C  C12  1  0.263100  0.729200  0.633560  1
  C  C13  1  0.297000  0.592000  0.485600  1
  C  C14  1  0.618100  0.386900  0.432110  1
  C  C15  1  0.906200  0.318900  0.526170  1
  C  C16  1  0.068800  0.815600  0.619010  1
  C  C17  1  0.416800  0.481900  0.419040  1
  C  C18  1  0.093800  0.681100  0.473830  1
  C  C19  1  0.736900  0.270800  0.366440  1
  C  C20  1  1.018000  0.210700  0.461320  1
  C  C21  1  -0.018000  0.789300  0.538680  1
  C  C22  1  0.333600  0.468900  0.335860  1
  C  C23  1  0.931200  0.184400  0.380990  1
  C  C24  1  1.224700  0.109000  0.460900  1
  C  C25  1  -0.224700  0.891000  0.539100  1
  C  C26  1  -0.283800  0.980500  0.613700  1
  C  C27  1  0.264000  0.463800  0.265430  1
  C  C28  1  1.283800  0.019500  0.386300  1
  C  C29  1  -0.103200  0.495500  0.165470  1
  C  C30  1  0.299200  0.247200  0.097990  1
  C  C31  1  0.201000  0.696000  0.109500  1
  C  C32  1  -0.218000  0.647600  0.228800  1
  C  C33  1  0.518300  0.178400  0.114200  1
  C  C34  1  0.076000  0.828900  0.063700  1
  F  F35  1  -0.465200  1.086500  0.637640  1
  F  F36  1  1.465200  -0.086500  0.362360  1
  H  H37  1  1.115400  0.631000  0.816600  1
  H  H38  1  1.162300  0.473600  0.892700  1
  H  H39  1  0.722500  0.731000  0.965200  1
  H  H40  1  0.754600  0.857000  0.884500  1
  H  H41  1  0.676600  0.284900  0.879800  1
  H  H42  1  1.211300  0.225500  0.789400  1
  H  H43  1  1.354300  0.350300  0.770100  1
  H  H44  1  1.163000  0.382900  0.713000  1
  H  H45  1  0.458200  0.837000  0.823200  1
  H  H46  1  0.422300  0.945900  0.914800  1
  H  H47  1  0.424100  0.726100  0.909000  1
  H  H48  1  1.047900  0.183700  0.948700  1
  H  H49  1  0.891200  0.062200  0.957300  1
  H  H50  1  0.318100  0.746900  0.687400  1
  H  H51  1  0.964500  0.334600  0.579400  1
  H  H52  1  0.035500  0.665400  0.420600  1
  H  H53  1  0.681900  0.253100  0.312600  1
  H  H54  1  1.308100  0.105600  0.508500  1
  H  H55  1  -0.308100  0.894400  0.491500  1
  H  H56  1  -0.115400  0.369000  0.183400  1
  H  H57  1  -0.162300  0.526400  0.107300  1
  H  H58  1  0.277500  0.269000  0.034800  1
  H  H59  1  0.245400  0.143000  0.115500  1
  H  H60  1  0.323400  0.715100  0.120200  1
  H  H61  1  -0.211300  0.774500  0.210600  1
  H  H62  1  -0.354300  0.649700  0.229900  1
  H  H63  1  -0.163000  0.617100  0.287000  1
  H  H64  1  0.541800  0.163000  0.176800  1
  H  H65  1  0.577700  0.054100  0.085200  1
  H  H66  1  0.575900  0.273900  0.091000  1
  H  H67  1  -0.047900  0.816300  0.051300  1
  H  H68  1  0.108800  0.937800  0.042700  1
  S  S69  1  -0.102260  0.963500  0.691220  1
  S  S70  1  1.102260  0.036500  0.308780  1
  Si  Si71  1  0.838180  0.528420  0.843790  1.0
  Si  Si72  1  0.161820  0.471580  0.156210  1
