# generated using pymatgen
data_SiH39(C7O)4
_symmetry_space_group_name_H-M   'P 1'
_cell_length_a   10.26310000
_cell_length_b   16.58880000
_cell_length_c   16.81830000
_cell_angle_alpha   90.00000000
_cell_angle_beta   106.97320000
_cell_angle_gamma   90.00000000
_symmetry_Int_Tables_number   1
_chemical_formula_structural   SiH39(C7O)4
_chemical_formula_sum   'Si4 H156 C112 O16'
_cell_volume   2738.63400714
_cell_formula_units_Z   4
loop_
 _symmetry_equiv_pos_site_id
 _symmetry_equiv_pos_as_xyz
  1  'x, y, z'
loop_
 _atom_site_type_symbol
 _atom_site_label
 _atom_site_symmetry_multiplicity
 _atom_site_fract_x
 _atom_site_fract_y
 _atom_site_fract_z
 _atom_site_occupancy
  C  C1  1  0.936200  0.353740  0.299690  1
  C  C2  1  0.762800  0.225090  0.200850  1
  C  C3  1  0.856300  0.372060  0.115290  1
  C  C4  1  1.065200  0.236340  0.209870  1
  C  C5  1  0.951800  0.393800  0.361400  1
  C  C6  1  0.803000  0.165010  0.272860  1
  C  C7  1  0.633500  0.271110  0.201770  1
  C  C8  1  0.814500  0.334930  0.028520  1
  C  C9  1  0.962100  0.438320  0.121540  1
  C  C10  1  1.049400  0.182030  0.134230  1
  C  C11  1  1.198500  0.285450  0.228830  1
  C  C12  1  0.975700  0.445570  0.432350  1
  C  C13  1  0.880300  0.449910  0.478160  1
  C  C14  1  1.094500  0.494400  0.452910  1
  C  C15  1  0.762400  0.401460  0.459520  1
  C  C16  1  0.905500  0.505600  0.547090  1
  C  C17  1  1.119700  0.550090  0.521840  1
  C  C18  1  1.190200  0.489950  0.407990  1
  C  C19  1  0.669200  0.405620  0.505280  1
  C  C20  1  1.024300  0.554430  0.567650  1
  C  C21  1  0.809800  0.510050  0.592010  1
  C  C22  1  1.237600  0.598540  0.540480  1
  C  C23  1  1.305800  0.537670  0.427230  1
  C  C24  1  0.550400  0.355820  0.489160  1
  C  C25  1  0.694200  0.462330  0.572770  1
  C  C26  1  1.048200  0.606200  0.638600  1
  C  C27  1  1.330800  0.594380  0.494720  1
  C  C28  1  1.401900  0.532870  0.380680  1
  C  C29  1  0.463300  0.360710  0.536310  1
  C  C30  1  0.598100  0.467130  0.619320  1
  C  C31  1  1.063800  0.646260  0.700310  1
  C  C32  1  1.449600  0.644180  0.510840  1
  C  C33  1  1.512100  0.581110  0.396660  1
  C  C34  1  0.487900  0.418890  0.603340  1
  C  C35  1  0.338800  0.308370  0.521810  1
  C  C36  1  1.536700  0.639290  0.463690  1
  C  C37  1  1.610500  0.575910  0.346310  1
  C  C38  1  0.389500  0.424090  0.653690  1
  C  C39  1  1.237200  0.774910  0.799150  1
  C  C40  1  1.143700  0.627940  0.884710  1
  C  C41  1  0.934800  0.763660  0.790130  1
  C  C42  1  1.661200  0.691630  0.478190  1
  C  C43  1  0.216600  0.201100  0.442730  1
  C  C44  1  1.197000  0.834990  0.727140  1
  C  C45  1  1.366500  0.728890  0.798230  1
  C  C46  1  1.185500  0.665070  0.971480  1
  C  C47  1  1.037900  0.561680  0.878460  1
  C  C48  1  0.950600  0.817970  0.865770  1
  C  C49  1  0.801500  0.714550  0.771170  1
  C  C50  1  1.648200  0.513070  0.229460  1
  C  C51  1  0.351800  0.486930  0.770540  1
  C  C52  1  1.783400  0.798900  0.557270  1
  C  C53  1  0.301200  0.093820  0.535680  1
  C  C54  1  1.514500  0.598760  0.125460  1
  C  C55  1  0.485500  0.401240  0.874540  1
  C  C56  1  1.698800  0.906180  0.464320  1
  C  C57  1  1.063800  0.853740  0.200310  1
  C  C58  1  1.237200  0.725090  0.299150  1
  C  C59  1  1.143700  0.872060  0.384710  1
  C  C60  1  0.934800  0.736340  0.290130  1
  C  C61  1  1.048200  0.893800  0.138600  1
  C  C62  1  1.197000  0.665010  0.227140  1
  C  C63  1  1.366500  0.771110  0.298230  1
  C  C64  1  1.185500  0.834930  0.471480  1
  C  C65  1  1.037900  0.938320  0.378460  1
  C  C66  1  0.950600  0.682030  0.365770  1
  C  C67  1  0.801500  0.785450  0.271170  1
  C  C68  1  1.024300  0.945570  0.067650  1
  C  C69  1  1.119700  0.949910  0.021840  1
  C  C70  1  0.905500  0.994400  0.047090  1
  C  C71  1  1.237600  0.901460  0.040480  1
  C  C72  1  1.094500  1.005600  -0.047090  1
  C  C73  1  0.880300  1.050090  -0.021840  1
  C  C74  1  0.809800  0.989950  0.092010  1
  C  C75  1  1.330800  0.905620  -0.005280  1
  C  C76  1  0.975700  1.054430  -0.067650  1
  C  C77  1  1.190200  1.010050  -0.092010  1
  C  C78  1  0.762400  1.098540  -0.040480  1
  C  C79  1  0.694200  1.037670  0.072770  1
  C  C80  1  1.449600  0.855820  0.010840  1
  C  C81  1  1.305800  0.962330  -0.072770  1
  C  C82  1  0.951800  1.106200  -0.138600  1
  C  C83  1  0.669200  1.094380  0.005280  1
  C  C84  1  0.598100  1.032870  0.119320  1
  C  C85  1  1.536700  0.860710  -0.036310  1
  C  C86  1  1.401900  0.967130  -0.119320  1
  C  C87  1  0.936200  1.146260  -0.200310  1
  C  C88  1  0.550400  1.144180  -0.010840  1
  C  C89  1  0.487900  1.081110  0.103340  1
  C  C90  1  1.512100  0.918890  -0.103340  1
  C  C91  1  1.661200  0.808370  -0.021810  1
  C  C92  1  0.463300  1.139290  0.036310  1
  C  C93  1  0.389500  1.075910  0.153690  1
  C  C94  1  1.610500  0.924090  -0.153690  1
  C  C95  1  0.762800  1.274910  -0.299150  1
  C  C96  1  0.856300  1.127940  -0.384710  1
  C  C97  1  1.065200  1.263660  -0.290130  1
  C  C98  1  0.338800  1.191630  0.021810  1
  C  C99  1  1.783400  0.701100  0.057270  1
  C  C100  1  0.803000  1.334990  -0.227140  1
  C  C101  1  0.633500  1.228890  -0.298230  1
  C  C102  1  0.814500  1.165070  -0.471480  1
  C  C103  1  0.962100  1.061680  -0.378460  1
  C  C104  1  1.049400  1.317970  -0.365770  1
  C  C105  1  1.198500  1.214550  -0.271170  1
  C  C106  1  0.351800  1.013070  0.270540  1
  C  C107  1  1.648200  0.986930  -0.270540  1
  C  C108  1  0.216600  1.298900  -0.057270  1
  C  C109  1  1.698800  0.593820  -0.035680  1
  C  C110  1  0.485500  1.098760  0.374540  1
  C  C111  1  1.514500  0.901240  -0.374540  1
  C  C112  1  0.301200  1.406180  0.035680  1
  H  H113  1  0.741600  0.193700  0.147900  1
  H  H114  1  0.773200  0.399600  0.121500  1
  H  H115  1  1.076600  0.199100  0.258200  1
  H  H116  1  0.826600  0.194300  0.325700  1
  H  H117  1  0.881800  0.133500  0.269100  1
  H  H118  1  0.726400  0.128700  0.269900  1
  H  H119  1  0.563400  0.232700  0.206200  1
  H  H120  1  0.600000  0.302200  0.150200  1
  H  H121  1  0.654500  0.307900  0.249500  1
  H  H122  1  0.779900  0.377300  -0.012900  1
  H  H123  1  0.743100  0.294700  0.024700  1
  H  H124  1  0.893800  0.309000  0.018000  1
  H  H125  1  1.042200  0.415700  0.109200  1
  H  H126  1  0.989100  0.460700  0.177900  1
  H  H127  1  0.923000  0.481100  0.081500  1
  H  H128  1  1.054500  0.214800  0.086800  1
  H  H129  1  0.960900  0.154700  0.120600  1
  H  H130  1  1.122400  0.141800  0.146800  1
  H  H131  1  1.276400  0.248600  0.241700  1
  H  H132  1  1.205400  0.320800  0.276600  1
  H  H133  1  1.198100  0.318200  0.180300  1
  H  H134  1  0.745900  0.364800  0.414300  1
  H  H135  1  1.175100  0.453000  0.363000  1
  H  H136  1  0.824900  0.547000  0.637000  1
  H  H137  1  1.254100  0.635200  0.585700  1
  H  H138  1  0.531900  0.318500  0.444400  1
  H  H139  1  1.387600  0.494500  0.337100  1
  H  H140  1  0.612400  0.505500  0.662900  1
  H  H141  1  1.468100  0.681500  0.555600  1
  H  H142  1  0.337700  0.282800  0.574800  1
  H  H143  1  0.256000  0.342000  0.502000  1
  H  H144  1  1.701700  0.560600  0.382700  1
  H  H145  1  1.618200  0.629200  0.321500  1
  H  H146  1  0.298300  0.439400  0.617300  1
  H  H147  1  0.381800  0.370800  0.678500  1
  H  H148  1  1.258400  0.806300  0.852100  1
  H  H149  1  1.226800  0.600400  0.878500  1
  H  H150  1  0.923400  0.800900  0.741800  1
  H  H151  1  1.662300  0.717200  0.425200  1
  H  H152  1  1.744000  0.658000  0.498000  1
  H  H153  1  0.137400  0.237600  0.422900  1
  H  H154  1  0.216000  0.163400  0.397000  1
  H  H155  1  1.173400  0.805700  0.674300  1
  H  H156  1  1.118200  0.866500  0.730900  1
  H  H157  1  1.273600  0.871300  0.730100  1
  H  H158  1  1.436600  0.767300  0.793800  1
  H  H159  1  1.400000  0.697800  0.849800  1
  H  H160  1  1.345500  0.692100  0.750500  1
  H  H161  1  1.220100  0.622700  1.012900  1
  H  H162  1  1.256900  0.705300  0.975300  1
  H  H163  1  1.106200  0.691000  0.982000  1
  H  H164  1  0.957800  0.584300  0.890800  1
  H  H165  1  1.010900  0.539300  0.822100  1
  H  H166  1  1.077000  0.518900  0.918500  1
  H  H167  1  0.945500  0.785200  0.913200  1
  H  H168  1  1.039100  0.845300  0.879400  1
  H  H169  1  0.877600  0.858200  0.853200  1
  H  H170  1  0.723600  0.751400  0.758300  1
  H  H171  1  0.794600  0.679200  0.723400  1
  H  H172  1  0.801900  0.681800  0.819700  1
  H  H173  1  1.618600  0.467000  0.191000  1
  H  H174  1  1.743000  0.502500  0.263500  1
  H  H175  1  0.381400  0.533000  0.809000  1
  H  H176  1  0.257000  0.497500  0.736500  1
  H  H177  1  1.862600  0.762400  0.577100  1
  H  H178  1  1.784000  0.836600  0.603000  1
  H  H179  1  0.294400  0.057600  0.488600  1
  H  H180  1  0.284100  0.063400  0.581500  1
  H  H181  1  0.392700  0.117300  0.554000  1
  H  H182  1  1.447300  0.604500  0.156200  1
  H  H183  1  1.517800  0.648600  0.094800  1
  H  H184  1  1.488500  0.553800  0.086300  1
  H  H185  1  0.552700  0.395500  0.843800  1
  H  H186  1  0.482200  0.351400  0.905200  1
  H  H187  1  0.511500  0.446200  0.913700  1
  H  H188  1  1.705600  0.942400  0.511400  1
  H  H189  1  1.715900  0.936600  0.418500  1
  H  H190  1  1.607300  0.882700  0.446000  1
  H  H191  1  1.258400  0.693700  0.352100  1
  H  H192  1  1.226800  0.899600  0.378500  1
  H  H193  1  0.923400  0.699100  0.241800  1
  H  H194  1  1.173400  0.694300  0.174300  1
  H  H195  1  1.118200  0.633500  0.230900  1
  H  H196  1  1.273600  0.628700  0.230100  1
  H  H197  1  1.436600  0.732700  0.293800  1
  H  H198  1  1.400000  0.802200  0.349800  1
  H  H199  1  1.345500  0.807900  0.250500  1
  H  H200  1  1.220100  0.877300  0.512900  1
  H  H201  1  1.256900  0.794700  0.475300  1
  H  H202  1  1.106200  0.809000  0.482000  1
  H  H203  1  0.957800  0.915700  0.390800  1
  H  H204  1  1.010900  0.960700  0.322100  1
  H  H205  1  1.077000  0.981100  0.418500  1
  H  H206  1  0.945500  0.714800  0.413200  1
  H  H207  1  1.039100  0.654700  0.379400  1
  H  H208  1  0.877600  0.641800  0.353200  1
  H  H209  1  0.723600  0.748600  0.258300  1
  H  H210  1  0.794600  0.820800  0.223400  1
  H  H211  1  0.801900  0.818200  0.319700  1
  H  H212  1  1.254100  0.864800  0.085700  1
  H  H213  1  0.824900  0.953000  0.137000  1
  H  H214  1  1.175100  1.047000  -0.137000  1
  H  H215  1  0.745900  1.135200  -0.085700  1
  H  H216  1  1.468100  0.818500  0.055600  1
  H  H217  1  0.612400  0.994500  0.162900  1
  H  H218  1  1.387600  1.005500  -0.162900  1
  H  H219  1  0.531900  1.181500  -0.055600  1
  H  H220  1  1.662300  0.782800  -0.074800  1
  H  H221  1  1.744000  0.842000  -0.002000  1
  H  H222  1  0.298300  1.060600  0.117300  1
  H  H223  1  0.381800  1.129200  0.178500  1
  H  H224  1  1.701700  0.939400  -0.117300  1
  H  H225  1  1.618200  0.870800  -0.178500  1
  H  H226  1  0.741600  1.306300  -0.352100  1
  H  H227  1  0.773200  1.100400  -0.378500  1
  H  H228  1  1.076600  1.300900  -0.241800  1
  H  H229  1  0.337700  1.217200  0.074800  1
  H  H230  1  0.256000  1.158000  0.002000  1
  H  H231  1  1.862600  0.737600  0.077100  1
  H  H232  1  1.784000  0.663400  0.103000  1
  H  H233  1  0.826600  1.305700  -0.174300  1
  H  H234  1  0.881800  1.366500  -0.230900  1
  H  H235  1  0.726400  1.371300  -0.230100  1
  H  H236  1  0.563400  1.267300  -0.293800  1
  H  H237  1  0.600000  1.197800  -0.349800  1
  H  H238  1  0.654500  1.192100  -0.250500  1
  H  H239  1  0.779900  1.122700  -0.512900  1
  H  H240  1  0.743100  1.205300  -0.475300  1
  H  H241  1  0.893800  1.191000  -0.482000  1
  H  H242  1  1.042200  1.084300  -0.390800  1
  H  H243  1  0.989100  1.039300  -0.322100  1
  H  H244  1  0.923000  1.018900  -0.418500  1
  H  H245  1  1.054500  1.285200  -0.413200  1
  H  H246  1  0.960900  1.345300  -0.379400  1
  H  H247  1  1.122400  1.358200  -0.353200  1
  H  H248  1  1.276400  1.251400  -0.258300  1
  H  H249  1  1.205400  1.179200  -0.223400  1
  H  H250  1  1.198100  1.181800  -0.319700  1
  H  H251  1  0.381400  0.967000  0.309000  1
  H  H252  1  0.257000  1.002500  0.236500  1
  H  H253  1  1.618600  1.033000  -0.309000  1
  H  H254  1  1.743000  0.997500  -0.236500  1
  H  H255  1  0.137400  1.262400  -0.077100  1
  H  H256  1  0.216000  1.336600  -0.103000  1
  H  H257  1  1.705600  0.557600  0.011400  1
  H  H258  1  1.715900  0.563400  -0.081500  1
  H  H259  1  1.607300  0.617300  -0.054000  1
  H  H260  1  0.552700  1.104500  0.343800  1
  H  H261  1  0.482200  1.148600  0.405200  1
  H  H262  1  0.511500  1.053800  0.413700  1
  H  H263  1  1.447300  0.895500  -0.343800  1
  H  H264  1  1.517800  0.851400  -0.405200  1
  H  H265  1  1.488500  0.946200  -0.413700  1
  H  H266  1  0.294400  1.442400  -0.011400  1
  H  H267  1  0.284100  1.436600  0.081500  1
  H  H268  1  0.392700  1.382700  0.054000  1
  O  O269  1  0.338140  0.247560  0.461910  1
  O  O270  1  1.564390  0.517380  0.282090  1
  O  O271  1  0.435610  0.482620  0.717910  1
  O  O272  1  1.661860  0.752440  0.538090  1
  O  O273  1  0.202450  0.156840  0.510720  1
  O  O274  1  1.646250  0.583300  0.182740  1
  O  O275  1  0.353750  0.416700  0.817260  1
  O  O276  1  1.797550  0.843160  0.489280  1
  O  O277  1  1.661860  0.747560  0.038090  1
  O  O278  1  0.435610  1.017380  0.217910  1
  O  O279  1  1.564390  0.982620  -0.217910  1
  O  O280  1  0.338140  1.252440  -0.038090  1
  O  O281  1  1.797550  0.656840  -0.010720  1
  O  O282  1  0.353750  1.083300  0.317260  1
  O  O283  1  1.646250  0.916700  -0.317260  1
  O  O284  1  0.202450  1.343160  0.010720  1
  Si  Si285  1  0.906910  0.295850  0.202470  1.0
  Si  Si286  1  1.093090  0.704150  0.797530  1
  Si  Si287  1  1.093090  0.795850  0.297530  1.0
  Si  Si288  1  0.906910  1.204150  -0.297530  1
