# generated using pymatgen
data_SiH21C19
_symmetry_space_group_name_H-M   'P 1'
_cell_length_a   7.20400000
_cell_length_b   9.99400000
_cell_length_c   11.32600000
_cell_angle_alpha   80.81000000
_cell_angle_beta   89.13000000
_cell_angle_gamma   82.21000000
_symmetry_Int_Tables_number   1
_chemical_formula_structural   SiH21C19
_chemical_formula_sum   'Si2 H42 C38'
_cell_volume   797.52262149
_cell_formula_units_Z   2
loop_
 _symmetry_equiv_pos_site_id
 _symmetry_equiv_pos_as_xyz
  1  'x, y, z'
loop_
 _atom_site_type_symbol
 _atom_site_label
 _atom_site_symmetry_multiplicity
 _atom_site_fract_x
 _atom_site_fract_y
 _atom_site_fract_z
 _atom_site_occupancy
  C  C1  1  0.368900  0.709000  0.276300  1
  C  C2  1  0.241200  0.997800  0.298400  1
  C  C3  1  0.444200  0.809400  0.508200  1
  C  C4  1  0.051400  0.761800  0.440100  1
  C  C5  1  0.413200  0.645400  0.195200  1
  C  C6  1  0.405500  1.033400  0.219500  1
  C  C7  1  0.514700  0.666800  0.574400  1
  C  C8  1  -0.089300  0.756400  0.344100  1
  C  C9  1  0.458700  0.571800  0.097900  1
  C  C10  1  0.342300  0.475700  0.073800  1
  C  C11  1  0.615600  0.597800  0.025900  1
  C  C12  1  0.183600  0.450000  0.142900  1
  C  C13  1  0.384400  0.402200  -0.025900  1
  C  C14  1  0.657700  0.524300  -0.073800  1
  C  C15  1  0.734500  0.691900  0.047600  1
  C  C16  1  0.067200  0.358200  0.119600  1
  C  C17  1  0.541300  0.428200  -0.097900  1
  C  C18  1  0.265500  0.308100  -0.047600  1
  C  C19  1  0.816400  0.550000  -0.142900  1
  C  C20  1  0.890100  0.715500  -0.021100  1
  C  C21  1  -0.095400  0.334200  0.188800  1
  C  C22  1  0.109900  0.284500  0.021100  1
  C  C23  1  0.586800  0.354600  -0.195200  1
  C  C24  1  0.932800  0.641800  -0.119600  1
  C  C25  1  1.013100  0.810300  0.001300  1
  C  C26  1  -0.208000  0.245000  0.163500  1
  C  C27  1  -0.013100  0.189700  -0.001300  1
  C  C28  1  0.631100  0.291000  -0.276300  1
  C  C29  1  1.095400  0.665800  -0.188800  1
  C  C30  1  1.165600  0.829100  -0.066900  1
  C  C31  1  -0.165600  0.170900  0.066900  1
  C  C32  1  1.208000  0.755000  -0.163500  1
  C  C33  1  0.758800  0.002200  -0.298400  1
  C  C34  1  0.555800  0.190600  -0.508200  1
  C  C35  1  0.948600  0.238200  -0.440100  1
  C  C36  1  0.594500  -0.033400  -0.219500  1
  C  C37  1  0.485300  0.333200  -0.574400  1
  C  C38  1  1.089300  0.243600  -0.344100  1
  H  H39  1  0.127500  1.009800  0.247800  1
  H  H40  1  0.219400  1.062900  0.356100  1
  H  H41  1  0.554000  0.852600  0.475800  1
  H  H42  1  0.384200  0.864600  0.567100  1
  H  H43  1  0.079600  0.669400  0.488000  1
  H  H44  1  -0.006200  0.824200  0.494100  1
  H  H45  1  0.383200  1.130300  0.183900  1
  H  H46  1  0.418800  0.976900  0.155900  1
  H  H47  1  0.520500  1.016000  0.267900  1
  H  H48  1  0.600700  0.674000  0.638600  1
  H  H49  1  0.580600  0.611900  0.518400  1
  H  H50  1  0.408200  0.622900  0.608700  1
  H  H51  1  -0.193600  0.711000  0.380000  1
  H  H52  1  -0.028800  0.705000  0.283900  1
  H  H53  1  -0.136700  0.849600  0.306000  1
  H  H54  1  0.155200  0.497700  0.208400  1
  H  H55  1  0.706500  0.741300  0.112100  1
  H  H56  1  0.293500  0.258700  -0.112100  1
  H  H57  1  0.844800  0.502300  -0.208400  1
  H  H58  1  -0.125100  0.382100  0.254100  1
  H  H59  1  0.986700  0.860800  0.065200  1
  H  H60  1  -0.316300  0.231500  0.210400  1
  H  H61  1  0.013300  0.139200  -0.065200  1
  H  H62  1  1.125100  0.617900  -0.254100  1
  H  H63  1  1.245200  0.892300  -0.050300  1
  H  H64  1  -0.245200  0.107700  0.050300  1
  H  H65  1  1.316300  0.768500  -0.210400  1
  H  H66  1  0.872500  -0.009800  -0.247800  1
  H  H67  1  0.780600  -0.062900  -0.356100  1
  H  H68  1  0.446000  0.147400  -0.475800  1
  H  H69  1  0.615800  0.135400  -0.567100  1
  H  H70  1  0.920400  0.330600  -0.488000  1
  H  H71  1  1.006200  0.175800  -0.494100  1
  H  H72  1  0.616800  -0.130300  -0.183900  1
  H  H73  1  0.581200  0.023100  -0.155900  1
  H  H74  1  0.479500  -0.016000  -0.267900  1
  H  H75  1  0.399300  0.326000  -0.638600  1
  H  H76  1  0.419400  0.388100  -0.518400  1
  H  H77  1  0.591800  0.377100  -0.608700  1
  H  H78  1  1.193600  0.289000  -0.380000  1
  H  H79  1  1.028800  0.295000  -0.283900  1
  H  H80  1  1.136700  0.150400  -0.306000  1
  Si  Si81  1  0.274900  0.819770  0.383230  1.0
  Si  Si82  1  0.725100  0.180230  -0.383230  1
