# generated using pymatgen
data_SiC29O2
_symmetry_space_group_name_H-M   'P 1'
_cell_length_a   18.58360000
_cell_length_b   18.29490000
_cell_length_c   14.63670000
_cell_angle_alpha   90.00000000
_cell_angle_beta   110.88800000
_cell_angle_gamma   90.00000000
_symmetry_Int_Tables_number   1
_chemical_formula_structural   SiC29O2
_chemical_formula_sum   'Si8 C232 O16'
_cell_volume   4649.21602550
_cell_formula_units_Z   8
loop_
 _symmetry_equiv_pos_site_id
 _symmetry_equiv_pos_as_xyz
  1  'x, y, z'
loop_
 _atom_site_type_symbol
 _atom_site_label
 _atom_site_symmetry_multiplicity
 _atom_site_fract_x
 _atom_site_fract_y
 _atom_site_fract_z
 _atom_site_occupancy
  C  C1  1  0.296300  0.704800  0.614100  1
  C  C2  1  0.189000  0.660600  0.714600  1
  C  C3  1  0.142000  0.637800  0.497000  1
  C  C4  1  0.152000  0.792200  0.572700  1
  C  C5  1  0.361600  0.708500  0.618100  1
  C  C6  1  0.210900  0.711600  0.796700  1
  C  C7  1  0.235200  0.590600  0.746700  1
  C  C8  1  0.169000  0.600000  0.452000  1
  C  C9  1  0.052100  0.632200  0.481000  1
  C  C10  1  0.209700  0.858500  0.632400  1
  C  C11  1  0.076800  0.811700  0.592800  1
  C  C12  1  0.439000  0.720000  0.624100  1
  C  C13  1  0.239500  0.660600  0.894000  1
  C  C14  1  0.269700  0.600700  0.867200  1
  C  C15  1  0.094000  0.549000  0.378000  1
  C  C16  1  0.031200  0.565400  0.417000  1
  C  C17  1  0.163800  0.914000  0.670500  1
  C  C18  1  0.075400  0.891300  0.605400  1
  C  C19  1  0.466300  0.792500  0.627300  1
  C  C20  1  0.488800  0.659900  0.626700  1
  C  C21  1  0.543300  0.805000  0.627800  1
  C  C22  1  0.418800  0.854700  0.624500  1
  C  C23  1  0.461300  0.587700  0.623300  1
  C  C24  1  0.564200  0.671900  0.632200  1
  C  C25  1  0.591500  0.745200  0.630700  1
  C  C26  1  0.568000  0.878000  0.629300  1
  C  C27  1  0.443300  0.924500  0.623600  1
  C  C28  1  0.509200  0.526800  0.626800  1
  C  C29  1  0.613700  0.611800  0.636700  1
  C  C30  1  0.665900  0.758200  0.627200  1
  C  C31  1  0.524000  0.937500  0.626200  1
  C  C32  1  0.395400  0.985300  0.622700  1
  C  C33  1  0.479200  0.456000  0.621100  1
  C  C34  1  0.586500  0.541800  0.634100  1
  C  C35  1  0.729600  0.757300  0.618800  1
  C  C36  1  0.547900  1.010400  0.627900  1
  C  C37  1  0.423200  1.054000  0.624300  1
  C  C38  1  0.529900  0.397200  0.624000  1
  C  C39  1  0.636700  0.480000  0.636200  1
  C  C40  1  0.500300  1.065600  0.627100  1
  C  C41  1  0.607500  0.412700  0.631300  1
  C  C42  1  0.794900  0.674000  0.500000  1
  C  C43  1  0.892100  0.711400  0.720700  1
  C  C44  1  0.858000  0.828400  0.571000  1
  C  C45  1  0.440600  1.176400  0.620400  1
  C  C46  1  0.586000  0.288400  0.628800  1
  C  C47  1  0.714900  0.646400  0.444600  1
  C  C48  1  0.844600  0.656600  0.443500  1
  C  C49  1  0.856700  0.656500  0.772000  1
  C  C50  1  0.967400  0.689900  0.720300  1
  C  C51  1  0.889000  0.874000  0.671000  1
  C  C52  1  0.802000  0.888200  0.508000  1
  C  C53  1  0.728000  0.587400  0.378000  1
  C  C54  1  0.797700  0.611200  0.357700  1
  C  C55  1  0.937500  0.616900  0.840000  1
  C  C56  1  1.001400  0.639800  0.806800  1
  C  C57  1  0.879000  0.955000  0.652000  1
  C  C58  1  0.857700  0.962600  0.537000  1
  C  C59  1  0.703700  1.204800  0.885900  1
  C  C60  1  0.811000  1.160600  0.785400  1
  C  C61  1  0.858000  1.137800  1.003000  1
  C  C62  1  0.848000  1.292200  0.927300  1
  C  C63  1  0.638400  1.208500  0.881900  1
  C  C64  1  0.789100  1.211600  0.703300  1
  C  C65  1  0.764800  1.090600  0.753300  1
  C  C66  1  0.831000  1.100000  1.048000  1
  C  C67  1  0.947900  1.132200  1.019000  1
  C  C68  1  0.790300  1.358500  0.867600  1
  C  C69  1  0.923200  1.311700  0.907200  1
  C  C70  1  0.561000  1.220000  0.875900  1
  C  C71  1  0.760500  1.160600  0.606000  1
  C  C72  1  0.730300  1.100700  0.632800  1
  C  C73  1  0.906000  1.049000  1.122000  1
  C  C74  1  0.968800  1.065400  1.083000  1
  C  C75  1  0.836200  1.414000  0.829500  1
  C  C76  1  0.924600  1.391300  0.894600  1
  C  C77  1  0.533700  1.292500  0.872700  1
  C  C78  1  0.511200  1.159900  0.873300  1
  C  C79  1  0.456700  1.305000  0.872200  1
  C  C80  1  0.581200  1.354700  0.875500  1
  C  C81  1  0.538700  1.087700  0.876700  1
  C  C82  1  0.435800  1.171900  0.867800  1
  C  C83  1  0.408500  1.245200  0.869300  1
  C  C84  1  0.432000  1.378000  0.870700  1
  C  C85  1  0.556700  1.424500  0.876400  1
  C  C86  1  0.490800  1.026800  0.873200  1
  C  C87  1  0.386300  1.111800  0.863300  1
  C  C88  1  0.334100  1.258200  0.872800  1
  C  C89  1  0.476000  1.437500  0.873800  1
  C  C90  1  0.604600  1.485300  0.877300  1
  C  C91  1  0.520800  0.956000  0.878900  1
  C  C92  1  0.413500  1.041800  0.865900  1
  C  C93  1  0.270400  1.257300  0.881200  1
  C  C94  1  0.452100  1.510400  0.872100  1
  C  C95  1  0.576800  1.554000  0.875700  1
  C  C96  1  0.470100  0.897200  0.876000  1
  C  C97  1  0.363300  0.980000  0.863800  1
  C  C98  1  0.499700  1.565600  0.872900  1
  C  C99  1  0.392500  0.912700  0.868700  1
  C  C100  1  0.205100  1.174000  1.000000  1
  C  C101  1  0.107900  1.211400  0.779300  1
  C  C102  1  0.142000  1.328400  0.929000  1
  C  C103  1  0.559400  1.676400  0.879600  1
  C  C104  1  0.414000  0.788400  0.871200  1
  C  C105  1  0.285100  1.146400  1.055400  1
  C  C106  1  0.155400  1.156600  1.056500  1
  C  C107  1  0.143300  1.156500  0.728000  1
  C  C108  1  0.032600  1.189900  0.779700  1
  C  C109  1  0.111000  1.374000  0.829000  1
  C  C110  1  0.198000  1.388200  0.992000  1
  C  C111  1  0.272000  1.087400  1.122000  1
  C  C112  1  0.202300  1.111200  1.142300  1
  C  C113  1  0.062500  1.116900  0.660000  1
  C  C114  1  -0.001400  1.139800  0.693200  1
  C  C115  1  0.121000  1.455000  0.848000  1
  C  C116  1  0.142300  1.462600  0.963000  1
  C  C117  1  0.703700  0.295200  0.385900  1
  C  C118  1  0.811000  0.339400  0.285400  1
  C  C119  1  0.858000  0.362200  0.503000  1
  C  C120  1  0.848000  0.207800  0.427300  1
  C  C121  1  0.638400  0.291500  0.381900  1
  C  C122  1  0.789100  0.288400  0.203300  1
  C  C123  1  0.764800  0.409400  0.253300  1
  C  C124  1  0.831000  0.400000  0.548000  1
  C  C125  1  0.947900  0.367800  0.519000  1
  C  C126  1  0.790300  0.141500  0.367600  1
  C  C127  1  0.923200  0.188300  0.407200  1
  C  C128  1  0.561000  0.280000  0.375900  1
  C  C129  1  0.760500  0.339400  0.106000  1
  C  C130  1  0.730300  0.399300  0.132800  1
  C  C131  1  0.906000  0.451000  0.622000  1
  C  C132  1  0.968800  0.434600  0.583000  1
  C  C133  1  0.836200  0.086000  0.329500  1
  C  C134  1  0.924600  0.108700  0.394600  1
  C  C135  1  0.533700  0.207500  0.372700  1
  C  C136  1  0.511200  0.340100  0.373300  1
  C  C137  1  0.456700  0.195000  0.372200  1
  C  C138  1  0.581200  0.145300  0.375500  1
  C  C139  1  0.538700  0.412300  0.376700  1
  C  C140  1  0.435800  0.328100  0.367800  1
  C  C141  1  0.408500  0.254800  0.369300  1
  C  C142  1  0.432000  0.122000  0.370700  1
  C  C143  1  0.556700  0.075500  0.376400  1
  C  C144  1  0.490800  0.473200  0.373200  1
  C  C145  1  0.386300  0.388200  0.363300  1
  C  C146  1  0.334100  0.241800  0.372800  1
  C  C147  1  0.476000  0.062500  0.373800  1
  C  C148  1  0.604600  0.014700  0.377300  1
  C  C149  1  0.520800  0.544000  0.378900  1
  C  C150  1  0.413500  0.458200  0.365900  1
  C  C151  1  0.270400  0.242700  0.381200  1
  C  C152  1  0.452100  -0.010400  0.372100  1
  C  C153  1  0.576800  -0.054000  0.375700  1
  C  C154  1  0.470100  0.602800  0.376000  1
  C  C155  1  0.363300  0.520000  0.363800  1
  C  C156  1  0.499700  -0.065600  0.372900  1
  C  C157  1  0.392500  0.587300  0.368700  1
  C  C158  1  0.205100  0.326000  0.500000  1
  C  C159  1  0.107900  0.288600  0.279300  1
  C  C160  1  0.142000  0.171600  0.429000  1
  C  C161  1  0.559400  -0.176400  0.379600  1
  C  C162  1  0.414000  0.711600  0.371200  1
  C  C163  1  0.285100  0.353600  0.555400  1
  C  C164  1  0.155400  0.343400  0.556500  1
  C  C165  1  0.143300  0.343500  0.228000  1
  C  C166  1  0.032600  0.310100  0.279700  1
  C  C167  1  0.111000  0.126000  0.329000  1
  C  C168  1  0.198000  0.111800  0.492000  1
  C  C169  1  0.272000  0.412600  0.622000  1
  C  C170  1  0.202300  0.388800  0.642300  1
  C  C171  1  0.062500  0.383100  0.160000  1
  C  C172  1  -0.001400  0.360200  0.193200  1
  C  C173  1  0.121000  0.045000  0.348000  1
  C  C174  1  0.142300  0.037400  0.463000  1
  C  C175  1  0.296300  0.795200  1.114100  1
  C  C176  1  0.189000  0.839400  1.214600  1
  C  C177  1  0.142000  0.862200  0.997000  1
  C  C178  1  0.152000  0.707800  1.072700  1
  C  C179  1  0.361600  0.791500  1.118100  1
  C  C180  1  0.210900  0.788400  1.296700  1
  C  C181  1  0.235200  0.909400  1.246700  1
  C  C182  1  0.169000  0.900000  0.952000  1
  C  C183  1  0.052100  0.867800  0.981000  1
  C  C184  1  0.209700  0.641500  1.132400  1
  C  C185  1  0.076800  0.688300  1.092800  1
  C  C186  1  0.439000  0.780000  1.124100  1
  C  C187  1  0.239500  0.839400  1.394000  1
  C  C188  1  0.269700  0.899300  1.367200  1
  C  C189  1  0.094000  0.951000  0.878000  1
  C  C190  1  0.031200  0.934600  0.917000  1
  C  C191  1  0.163800  0.586000  1.170500  1
  C  C192  1  0.075400  0.608700  1.105400  1
  C  C193  1  0.466300  0.707500  1.127300  1
  C  C194  1  0.488800  0.840100  1.126700  1
  C  C195  1  0.543300  0.695000  1.127800  1
  C  C196  1  0.418800  0.645300  1.124500  1
  C  C197  1  0.461300  0.912300  1.123300  1
  C  C198  1  0.564200  0.828100  1.132200  1
  C  C199  1  0.591500  0.754800  1.130700  1
  C  C200  1  0.568000  0.622000  1.129300  1
  C  C201  1  0.443300  0.575500  1.123600  1
  C  C202  1  0.509200  0.973200  1.126800  1
  C  C203  1  0.613700  0.888200  1.136700  1
  C  C204  1  0.665900  0.741800  1.127200  1
  C  C205  1  0.524000  0.562500  1.126200  1
  C  C206  1  0.395400  0.514700  1.122700  1
  C  C207  1  0.479200  1.044000  1.121100  1
  C  C208  1  0.586500  0.958200  1.134100  1
  C  C209  1  0.729600  0.742700  1.118800  1
  C  C210  1  0.547900  0.489600  1.127900  1
  C  C211  1  0.423200  0.446000  1.124300  1
  C  C212  1  0.529900  1.102800  1.124000  1
  C  C213  1  0.636700  1.020000  1.136200  1
  C  C214  1  0.500300  0.434400  1.127100  1
  C  C215  1  0.607500  1.087300  1.131300  1
  C  C216  1  0.794900  0.826000  1.000000  1
  C  C217  1  0.892100  0.788600  1.220700  1
  C  C218  1  0.858000  0.671600  1.071000  1
  C  C219  1  0.440600  0.323600  1.120400  1
  C  C220  1  0.586000  1.211600  1.128800  1
  C  C221  1  0.714900  0.853600  0.944600  1
  C  C222  1  0.844600  0.843400  0.943500  1
  C  C223  1  0.856700  0.843500  1.272000  1
  C  C224  1  0.967400  0.810100  1.220300  1
  C  C225  1  0.889000  0.626000  1.171000  1
  C  C226  1  0.802000  0.611800  1.008000  1
  C  C227  1  0.728000  0.912600  0.878000  1
  C  C228  1  0.797700  0.888800  0.857700  1
  C  C229  1  0.937500  0.883100  1.340000  1
  C  C230  1  1.001400  0.860200  1.306800  1
  C  C231  1  0.879000  0.545000  1.152000  1
  C  C232  1  0.857700  0.537400  1.037000  1
  O  O233  1  0.388300  1.118000  0.624300  1
  O  O234  1  0.516100  0.326900  0.619100  1
  O  O235  1  0.511400  1.138000  0.629400  1
  O  O236  1  0.642000  0.347000  0.631800  1
  O  O237  1  0.611700  1.618000  0.875700  1
  O  O238  1  0.483900  0.826900  0.880900  1
  O  O239  1  0.488600  1.638000  0.870600  1
  O  O240  1  0.358000  0.847000  0.868200  1
  O  O241  1  0.611700  -0.118000  0.375700  1
  O  O242  1  0.483900  0.673100  0.380900  1
  O  O243  1  0.488600  -0.138000  0.370600  1
  O  O244  1  0.358000  0.653000  0.368200  1
  O  O245  1  0.388300  0.382000  1.124300  1
  O  O246  1  0.516100  1.173100  1.119100  1
  O  O247  1  0.511400  0.362000  1.129400  1
  O  O248  1  0.642000  1.153000  1.131800  1
  Si  Si249  1  0.193700  0.699400  0.603300  1.0
  Si  Si250  1  0.818000  0.744100  0.597400  1
  Si  Si251  1  0.806300  1.199400  0.896700  1.0
  Si  Si252  1  0.182000  1.244100  0.902600  1
  Si  Si253  1  0.806300  0.300600  0.396700  1.0
  Si  Si254  1  0.182000  0.255900  0.402600  1
  Si  Si255  1  0.193700  0.800600  1.103300  1.0
  Si  Si256  1  0.818000  0.755900  1.097400  1
