# generated using pymatgen
data_SiH29C22S
_symmetry_space_group_name_H-M   'P 1'
_cell_length_a   9.29620000
_cell_length_b   10.18610000
_cell_length_c   11.48730000
_cell_angle_alpha   109.66870000
_cell_angle_beta   95.20660000
_cell_angle_gamma   91.55900000
_symmetry_Int_Tables_number   1
_chemical_formula_structural   SiH29C22S
_chemical_formula_sum   'Si2 H58 C44 S2'
_cell_volume   1018.12773349
_cell_formula_units_Z   2
loop_
 _symmetry_equiv_pos_site_id
 _symmetry_equiv_pos_as_xyz
  1  'x, y, z'
loop_
 _atom_site_type_symbol
 _atom_site_label
 _atom_site_symmetry_multiplicity
 _atom_site_fract_x
 _atom_site_fract_y
 _atom_site_fract_z
 _atom_site_occupancy
  C  C1  1  0.886060  0.281570  0.834500  1
  C  C2  1  0.776720  0.278740  0.583350  1
  C  C3  1  1.002430  0.521120  0.767650  1
  C  C4  1  0.685480  0.502020  0.817530  1
  C  C5  1  0.918950  0.199210  0.885610  1
  C  C6  1  0.886200  0.171600  0.524110  1
  C  C7  1  0.724800  0.357380  0.496390  1
  C  C8  1  1.135980  0.448700  0.714390  1
  C  C9  1  0.970500  0.642420  0.720320  1
  C  C10  1  0.727700  0.588670  0.954400  1
  C  C11  1  0.546000  0.411900  0.804560  1
  C  C12  1  0.959360  0.099220  0.944040  1
  C  C13  1  0.867120  0.067450  1.023660  1
  C  C14  1  1.090800  0.033330  0.918920  1
  C  C15  1  0.735360  0.133500  1.048930  1
  C  C16  1  0.909200  -0.033330  1.081080  1
  C  C17  1  1.132880  -0.067450  0.976340  1
  C  C18  1  1.183100  0.064950  0.839230  1
  C  C19  1  0.651000  0.096000  1.127000  1
  C  C20  1  1.040640  -0.099220  1.055960  1
  C  C21  1  0.816900  -0.064950  1.160770  1
  C  C22  1  1.264640  -0.133500  0.951070  1
  C  C23  1  1.302000  0.005000  0.817000  1
  C  C24  1  0.514000  0.143100  1.163000  1
  C  C25  1  0.698000  -0.005000  1.183000  1
  C  C26  1  1.081050  -0.199210  1.114390  1
  C  C27  1  1.349000  -0.096000  0.873000  1
  C  C28  1  0.457500  0.086800  1.241400  1
  C  C29  1  1.113940  -0.281570  1.165500  1
  C  C30  1  1.486000  -0.143100  0.837000  1
  C  C31  1  1.542500  -0.086800  0.758600  1
  C  C32  1  0.317000  0.109500  1.297800  1
  C  C33  1  1.683000  -0.109500  0.702200  1
  C  C34  1  0.337200  0.171900  1.440800  1
  C  C35  1  1.223280  -0.278740  1.416650  1
  C  C36  1  0.997570  -0.521120  1.232350  1
  C  C37  1  1.314520  -0.502020  1.182470  1
  C  C38  1  1.662800  -0.171900  0.559200  1
  C  C39  1  1.113800  -0.171600  1.475890  1
  C  C40  1  1.275200  -0.357380  1.503610  1
  C  C41  1  0.864020  -0.448700  1.285610  1
  C  C42  1  1.029500  -0.642420  1.279680  1
  C  C43  1  1.272300  -0.588670  1.045600  1
  C  C44  1  1.454000  -0.411900  1.195440  1
  H  H45  1  0.689800  0.222800  0.590200  1
  H  H46  1  1.029100  0.564300  0.859400  1
  H  H47  1  0.663900  0.568800  0.772300  1
  H  H48  1  0.839400  0.102300  0.447300  1
  H  H49  1  0.920100  0.124700  0.582300  1
  H  H50  1  0.968700  0.219800  0.505000  1
  H  H51  1  0.806700  0.412000  0.483900  1
  H  H52  1  0.650600  0.420300  0.533500  1
  H  H53  1  0.683700  0.290300  0.416100  1
  H  H54  1  1.119700  0.413700  0.623400  1
  H  H55  1  1.153300  0.370400  0.744200  1
  H  H56  1  1.220400  0.515600  0.741500  1
  H  H57  1  1.057700  0.704900  0.737100  1
  H  H58  1  0.892300  0.694300  0.763000  1
  H  H59  1  0.941200  0.605500  0.630600  1
  H  H60  1  0.647100  0.644700  0.987600  1
  H  H61  1  0.813000  0.650700  0.961700  1
  H  H62  1  0.749900  0.526200  1.001500  1
  H  H63  1  0.565000  0.341400  0.843800  1
  H  H64  1  0.512800  0.365500  0.716300  1
  H  H65  1  0.471200  0.471300  0.845400  1
  H  H66  1  0.706000  0.201500  1.013300  1
  H  H67  1  1.156600  0.132000  0.801600  1
  H  H68  1  0.843400  -0.132000  1.198400  1
  H  H69  1  1.294000  -0.201500  0.986700  1
  H  H70  1  0.465900  0.209200  1.134100  1
  H  H71  1  1.534100  -0.209200  0.865900  1
  H  H72  1  0.259700  0.019100  1.272300  1
  H  H73  1  0.261100  0.173100  1.264800  1
  H  H74  1  1.740300  -0.019100  0.727700  1
  H  H75  1  1.738900  -0.173100  0.735200  1
  H  H76  1  0.402200  0.115600  1.473700  1
  H  H77  1  0.243200  0.171800  1.473000  1
  H  H78  1  0.379200  0.268000  1.466700  1
  H  H79  1  1.310200  -0.222800  1.409800  1
  H  H80  1  0.970900  -0.564300  1.140600  1
  H  H81  1  1.336100  -0.568800  1.227700  1
  H  H82  1  1.597800  -0.115600  0.526300  1
  H  H83  1  1.756800  -0.171800  0.527000  1
  H  H84  1  1.620800  -0.268000  0.533300  1
  H  H85  1  1.160600  -0.102300  1.552700  1
  H  H86  1  1.079900  -0.124700  1.417700  1
  H  H87  1  1.031300  -0.219800  1.495000  1
  H  H88  1  1.193300  -0.412000  1.516100  1
  H  H89  1  1.349400  -0.420300  1.466500  1
  H  H90  1  1.316300  -0.290300  1.583900  1
  H  H91  1  0.880300  -0.413700  1.376600  1
  H  H92  1  0.846700  -0.370400  1.255800  1
  H  H93  1  0.779600  -0.515600  1.258500  1
  H  H94  1  0.942300  -0.704900  1.262900  1
  H  H95  1  1.107700  -0.694300  1.237000  1
  H  H96  1  1.058800  -0.605500  1.369400  1
  H  H97  1  1.352900  -0.644700  1.012400  1
  H  H98  1  1.187000  -0.650700  1.038300  1
  H  H99  1  1.250100  -0.526200  0.998500  1
  H  H100  1  1.435000  -0.341400  1.156200  1
  H  H101  1  1.487200  -0.365500  1.283700  1
  H  H102  1  1.528800  -0.471300  1.154600  1
  S  S103  1  1.429300  0.031400  0.722100  1
  S  S104  1  0.570700  -0.031400  1.277900  1
  Si  Si105  1  0.838570  0.398600  0.746860  1.0
  Si  Si106  1  1.161430  -0.398600  1.253140  1
