# generated using pymatgen
data_SiC23O2
_symmetry_space_group_name_H-M   'P 1'
_cell_length_a   17.99800000
_cell_length_b   17.78100000
_cell_length_c   25.76500000
_cell_angle_alpha   90.00000000
_cell_angle_beta   99.70600000
_cell_angle_gamma   90.00000000
_symmetry_Int_Tables_number   1
_chemical_formula_structural   SiC23O2
_chemical_formula_sum   'Si16 C368 O32'
_cell_volume   8127.35228459
_cell_formula_units_Z   16
loop_
 _symmetry_equiv_pos_site_id
 _symmetry_equiv_pos_as_xyz
  1  'x, y, z'
loop_
 _atom_site_type_symbol
 _atom_site_label
 _atom_site_symmetry_multiplicity
 _atom_site_fract_x
 _atom_site_fract_y
 _atom_site_fract_z
 _atom_site_occupancy
  C  C1  1  0.930700  0.210200  0.199700  1
  C  C2  1  1.051200  0.131600  0.150400  1
  C  C3  1  0.908700  0.194000  0.085300  1
  C  C4  1  1.029100  0.305400  0.143500  1
  C  C5  1  0.896300  0.217500  0.236100  1
  C  C6  1  1.124000  0.147800  0.189100  1
  C  C7  1  0.871100  0.115000  0.085000  1
  C  C8  1  0.960300  0.367100  0.125200  1
  C  C9  1  0.852300  0.232700  0.276300  1
  C  C10  1  1.180900  0.077500  0.196900  1
  C  C11  1  0.802900  0.102300  0.039000  1
  C  C12  1  0.999100  0.449400  0.135400  1
  C  C13  1  0.837900  0.307600  0.289300  1
  C  C14  1  0.823800  0.174200  0.303300  1
  C  C15  1  0.866000  0.371000  0.263800  1
  C  C16  1  0.791300  0.324500  0.329000  1
  C  C17  1  0.776800  0.187700  0.343300  1
  C  C18  1  0.836500  0.095600  0.290700  1
  C  C19  1  0.851100  0.445000  0.277100  1
  C  C20  1  0.776900  0.399800  0.342200  1
  C  C21  1  0.761000  0.263400  0.354000  1
  C  C22  1  0.747500  0.127200  0.369100  1
  C  C23  1  0.805800  0.037900  0.317300  1
  C  C24  1  0.882500  0.505200  0.249300  1
  C  C25  1  0.806000  0.459800  0.315900  1
  C  C26  1  0.713400  0.278500  0.392400  1
  C  C27  1  0.760100  0.052100  0.356200  1
  C  C28  1  0.824300  -0.036400  0.304500  1
  C  C29  1  0.863600  0.575300  0.264400  1
  C  C30  1  0.791100  0.535700  0.331500  1
  C  C31  1  0.675900  0.287700  0.426100  1
  C  C32  1  0.733200  -0.007400  0.385200  1
  C  C33  1  0.795400  -0.092000  0.331000  1
  C  C34  1  0.820900  0.590200  0.304100  1
  C  C35  1  0.749000  -0.076700  0.371600  1
  C  C36  1  0.857700  0.706400  0.273600  1
  C  C37  1  0.701200  0.307800  0.543400  1
  C  C38  1  0.562900  0.381600  0.475400  1
  C  C39  1  0.570200  0.206700  0.486600  1
  C  C40  1  0.758500  -0.208600  0.363300  1
  C  C41  1  0.749600  0.379600  0.540700  1
  C  C42  1  0.488000  0.367000  0.436800  1
  C  C43  1  0.626800  0.138500  0.496200  1
  C  C44  1  0.818400  0.378700  0.589500  1
  C  C45  1  0.435700  0.438700  0.428300  1
  C  C46  1  0.577000  0.060900  0.493600  1
  C  C47  1  0.569300  -0.289800  0.300300  1
  C  C48  1  0.448800  -0.368400  0.349600  1
  C  C49  1  0.591300  -0.306000  0.414700  1
  C  C50  1  0.470900  -0.194600  0.356500  1
  C  C51  1  0.603700  -0.282500  0.263900  1
  C  C52  1  0.376000  -0.352200  0.310900  1
  C  C53  1  0.628900  -0.385000  0.415000  1
  C  C54  1  0.539700  -0.132900  0.374800  1
  C  C55  1  0.647700  -0.267300  0.223700  1
  C  C56  1  0.319100  -0.422500  0.303100  1
  C  C57  1  0.697100  -0.397700  0.461000  1
  C  C58  1  0.500900  -0.050600  0.364600  1
  C  C59  1  0.662100  -0.192400  0.210700  1
  C  C60  1  0.676200  -0.325800  0.196700  1
  C  C61  1  0.634000  -0.129000  0.236200  1
  C  C62  1  0.708700  -0.175500  0.171000  1
  C  C63  1  0.723200  -0.312300  0.156700  1
  C  C64  1  0.663500  -0.404400  0.209300  1
  C  C65  1  0.648900  -0.055000  0.222900  1
  C  C66  1  0.723100  -0.100200  0.157800  1
  C  C67  1  0.739000  -0.236600  0.146000  1
  C  C68  1  0.752500  -0.372800  0.130900  1
  C  C69  1  0.694200  -0.462100  0.182700  1
  C  C70  1  0.617500  0.005200  0.250700  1
  C  C71  1  0.694000  -0.040200  0.184100  1
  C  C72  1  0.786600  -0.221500  0.107600  1
  C  C73  1  0.739900  -0.447900  0.143800  1
  C  C74  1  0.675700  -0.536400  0.195500  1
  C  C75  1  0.636400  0.075300  0.235600  1
  C  C76  1  0.708900  0.035700  0.168500  1
  C  C77  1  0.824100  -0.212300  0.073900  1
  C  C78  1  0.766800  -0.507400  0.114800  1
  C  C79  1  0.704600  -0.592000  0.169000  1
  C  C80  1  0.679100  0.090200  0.195900  1
  C  C81  1  0.751000  -0.576700  0.128400  1
  C  C82  1  0.642300  0.206400  0.226400  1
  C  C83  1  0.798800  -0.192200  -0.043400  1
  C  C84  1  0.937100  -0.118400  0.024600  1
  C  C85  1  0.929800  -0.293300  0.013400  1
  C  C86  1  0.741500  -0.708600  0.136700  1
  C  C87  1  0.750400  -0.120400  -0.040700  1
  C  C88  1  1.012000  -0.133000  0.063200  1
  C  C89  1  0.873200  -0.361500  0.003800  1
  C  C90  1  0.681600  -0.121300  -0.089500  1
  C  C91  1  1.064300  -0.061300  0.071700  1
  C  C92  1  0.923000  -0.439100  0.006400  1
  C  C93  1  1.069300  -0.210200  0.800300  1
  C  C94  1  0.948800  -0.131600  0.849600  1
  C  C95  1  1.091300  -0.194000  0.914700  1
  C  C96  1  0.970900  -0.305400  0.856500  1
  C  C97  1  1.103700  -0.217500  0.763900  1
  C  C98  1  0.876000  -0.147800  0.810900  1
  C  C99  1  1.128900  -0.115000  0.915000  1
  C  C100  1  1.039700  -0.367100  0.874800  1
  C  C101  1  1.147700  -0.232700  0.723700  1
  C  C102  1  0.819100  -0.077500  0.803100  1
  C  C103  1  1.197100  -0.102300  0.961000  1
  C  C104  1  1.000900  -0.449400  0.864600  1
  C  C105  1  1.162100  -0.307600  0.710700  1
  C  C106  1  1.176200  -0.174200  0.696700  1
  C  C107  1  1.134000  -0.371000  0.736200  1
  C  C108  1  1.208700  -0.324500  0.671000  1
  C  C109  1  1.223200  -0.187700  0.656700  1
  C  C110  1  1.163500  -0.095600  0.709300  1
  C  C111  1  1.148900  -0.445000  0.722900  1
  C  C112  1  1.223100  -0.399800  0.657800  1
  C  C113  1  1.239000  -0.263400  0.646000  1
  C  C114  1  1.252500  -0.127200  0.630900  1
  C  C115  1  1.194200  -0.037900  0.682700  1
  C  C116  1  1.117500  -0.505200  0.750700  1
  C  C117  1  1.194000  -0.459800  0.684100  1
  C  C118  1  1.286600  -0.278500  0.607600  1
  C  C119  1  1.239900  -0.052100  0.643800  1
  C  C120  1  1.175700  0.036400  0.695500  1
  C  C121  1  1.136400  -0.575300  0.735600  1
  C  C122  1  1.208900  -0.535700  0.668500  1
  C  C123  1  1.324100  -0.287700  0.573900  1
  C  C124  1  1.266800  0.007400  0.614800  1
  C  C125  1  1.204600  0.092000  0.669000  1
  C  C126  1  1.179100  -0.590200  0.695900  1
  C  C127  1  1.251000  0.076700  0.628400  1
  C  C128  1  1.142300  -0.706400  0.726400  1
  C  C129  1  1.298800  -0.307800  0.456600  1
  C  C130  1  1.437100  -0.381600  0.524600  1
  C  C131  1  1.429800  -0.206700  0.513400  1
  C  C132  1  1.241500  0.208600  0.636700  1
  C  C133  1  1.250400  -0.379600  0.459300  1
  C  C134  1  1.512000  -0.367000  0.563200  1
  C  C135  1  1.373200  -0.138500  0.503800  1
  C  C136  1  1.181600  -0.378700  0.410500  1
  C  C137  1  1.564300  -0.438700  0.571700  1
  C  C138  1  1.423000  -0.060900  0.506400  1
  C  C139  1  0.430700  0.289800  -0.300300  1
  C  C140  1  0.551200  0.368400  -0.349600  1
  C  C141  1  0.408700  0.306000  -0.414700  1
  C  C142  1  0.529100  0.194600  -0.356500  1
  C  C143  1  0.396300  0.282500  -0.263900  1
  C  C144  1  0.624000  0.352200  -0.310900  1
  C  C145  1  0.371100  0.385000  -0.415000  1
  C  C146  1  0.460300  0.132900  -0.374800  1
  C  C147  1  0.352300  0.267300  -0.223700  1
  C  C148  1  0.680900  0.422500  -0.303100  1
  C  C149  1  0.302900  0.397700  -0.461000  1
  C  C150  1  0.499100  0.050600  -0.364600  1
  C  C151  1  0.337900  0.192400  -0.210700  1
  C  C152  1  0.323800  0.325800  -0.196700  1
  C  C153  1  0.366000  0.129000  -0.236200  1
  C  C154  1  0.291300  0.175500  -0.171000  1
  C  C155  1  0.276800  0.312300  -0.156700  1
  C  C156  1  0.336500  0.404400  -0.209300  1
  C  C157  1  0.351100  0.055000  -0.222900  1
  C  C158  1  0.276900  0.100200  -0.157800  1
  C  C159  1  0.261000  0.236600  -0.146000  1
  C  C160  1  0.247500  0.372800  -0.130900  1
  C  C161  1  0.305800  0.462100  -0.182700  1
  C  C162  1  0.382500  -0.005200  -0.250700  1
  C  C163  1  0.306000  0.040200  -0.184100  1
  C  C164  1  0.213400  0.221500  -0.107600  1
  C  C165  1  0.260100  0.447900  -0.143800  1
  C  C166  1  0.324300  0.536400  -0.195500  1
  C  C167  1  0.363600  -0.075300  -0.235600  1
  C  C168  1  0.291100  -0.035700  -0.168500  1
  C  C169  1  0.175900  0.212300  -0.073900  1
  C  C170  1  0.233200  0.507400  -0.114800  1
  C  C171  1  0.295400  0.592000  -0.169000  1
  C  C172  1  0.320900  -0.090200  -0.195900  1
  C  C173  1  0.249000  0.576700  -0.128400  1
  C  C174  1  0.357700  -0.206400  -0.226400  1
  C  C175  1  0.201200  0.192200  0.043400  1
  C  C176  1  0.062900  0.118400  -0.024600  1
  C  C177  1  0.070200  0.293300  -0.013400  1
  C  C178  1  0.258500  0.708600  -0.136700  1
  C  C179  1  0.249600  0.120400  0.040700  1
  C  C180  1  -0.012000  0.133000  -0.063200  1
  C  C181  1  0.126800  0.361500  -0.003800  1
  C  C182  1  0.318400  0.121300  0.089500  1
  C  C183  1  -0.064300  0.061300  -0.071700  1
  C  C184  1  0.077000  0.439100  -0.006400  1
  C  C185  1  1.047500  -0.188200  0.333200  1
  C  C186  1  1.046600  -0.128200  0.225300  1
  C  C187  1  1.190500  -0.133900  0.300200  1
  C  C188  1  1.130100  -0.291300  0.270500  1
  C  C189  1  1.012500  -0.195200  0.366600  1
  C  C190  1  0.974600  -0.103000  0.220200  1
  C  C191  1  1.221900  -0.104600  0.344300  1
  C  C192  1  1.061200  -0.309500  0.233700  1
  C  C193  1  0.969500  -0.209500  0.407100  1
  C  C194  1  0.926900  -0.051200  0.182400  1
  C  C195  1  1.293800  -0.060300  0.360300  1
  C  C196  1  1.093400  -0.408600  0.250100  1
  C  C197  1  0.954900  -0.285000  0.420800  1
  C  C198  1  0.942800  -0.148300  0.436500  1
  C  C199  1  0.980400  -0.346100  0.393800  1
  C  C200  1  0.911200  -0.300200  0.462500  1
  C  C201  1  0.898700  -0.163700  0.476800  1
  C  C202  1  0.954600  -0.073500  0.422000  1
  C  C203  1  0.967800  -0.420900  0.408600  1
  C  C204  1  0.885700  -0.241700  0.489800  1
  C  C205  1  0.899400  -0.378300  0.477200  1
  C  C206  1  0.868500  -0.104800  0.502700  1
  C  C207  1  0.927700  -0.014800  0.450300  1
  C  C208  1  0.997000  -0.480200  0.380300  1
  C  C209  1  0.925500  -0.435300  0.448500  1
  C  C210  1  0.846700  -0.253100  0.532700  1
  C  C211  1  0.880900  -0.029800  0.489400  1
  C  C212  1  0.945100  0.063700  0.436200  1
  C  C213  1  0.979700  -0.551300  0.394300  1
  C  C214  1  0.909500  -0.512900  0.464600  1
  C  C215  1  0.816500  -0.259700  0.570700  1
  C  C216  1  0.848600  0.030600  0.515700  1
  C  C217  1  0.912000  0.117500  0.462800  1
  C  C218  1  0.938300  -0.565600  0.434700  1
  C  C219  1  0.865600  0.101700  0.500800  1
  C  C220  1  0.973700  -0.682400  0.402700  1
  C  C221  1  0.825500  -0.317100  0.684100  1
  C  C222  1  0.827500  -0.149600  0.657700  1
  C  C223  1  0.680800  -0.246300  0.625400  1
  C  C224  1  0.873000  0.231500  0.492900  1
  C  C225  1  0.785200  -0.402800  0.661100  1
  C  C226  1  0.916700  -0.150800  0.662300  1
  C  C227  1  0.637200  -0.172900  0.603000  1
  C  C228  1  0.832000  -0.426000  0.694000  1
  C  C229  1  0.946300  -0.069000  0.681800  1
  C  C230  1  0.645300  -0.161200  0.544100  1
  C  C231  1  0.452500  0.311800  0.166800  1
  C  C232  1  0.453400  0.371800  0.274700  1
  C  C233  1  0.309500  0.366100  0.199800  1
  C  C234  1  0.369900  0.208700  0.229500  1
  C  C235  1  0.487500  0.304800  0.133400  1
  C  C236  1  0.525400  0.397000  0.279800  1
  C  C237  1  0.278100  0.395400  0.155700  1
  C  C238  1  0.438800  0.190500  0.266300  1
  C  C239  1  0.530500  0.290500  0.092900  1
  C  C240  1  0.573100  0.448800  0.317600  1
  C  C241  1  0.206200  0.439700  0.139700  1
  C  C242  1  0.406600  0.091400  0.249900  1
  C  C243  1  0.545100  0.215000  0.079200  1
  C  C244  1  0.557200  0.351700  0.063500  1
  C  C245  1  0.519600  0.153900  0.106200  1
  C  C246  1  0.588800  0.199800  0.037500  1
  C  C247  1  0.601300  0.336300  0.023200  1
  C  C248  1  0.545400  0.426500  0.078000  1
  C  C249  1  0.532200  0.079100  0.091400  1
  C  C250  1  0.614300  0.258300  0.010200  1
  C  C251  1  0.600600  0.121700  0.022800  1
  C  C252  1  0.631500  0.395200  -0.002700  1
  C  C253  1  0.572300  0.485200  0.049700  1
  C  C254  1  0.503000  0.019800  0.119700  1
  C  C255  1  0.574500  0.064700  0.051500  1
  C  C256  1  0.653300  0.246900  -0.032700  1
  C  C257  1  0.619100  0.470200  0.010600  1
  C  C258  1  0.554900  0.563700  0.063800  1
  C  C259  1  0.520300  -0.051300  0.105700  1
  C  C260  1  0.590500  -0.012900  0.035400  1
  C  C261  1  0.683500  0.240300  -0.070700  1
  C  C262  1  0.651400  0.530600  -0.015700  1
  C  C263  1  0.588000  0.617500  0.037200  1
  C  C264  1  0.561700  -0.065600  0.065300  1
  C  C265  1  0.634400  0.601700  -0.000800  1
  C  C266  1  0.526300  -0.182400  0.097300  1
  C  C267  1  0.674500  0.182900  -0.184100  1
  C  C268  1  0.672500  0.350400  -0.157700  1
  C  C269  1  0.819200  0.253700  -0.125400  1
  C  C270  1  0.627000  0.731500  0.007100  1
  C  C271  1  0.714800  0.097200  -0.161100  1
  C  C272  1  0.583300  0.349200  -0.162300  1
  C  C273  1  0.862800  0.327100  -0.103000  1
  C  C274  1  0.668000  0.074000  -0.194000  1
  C  C275  1  0.553700  0.431000  -0.181800  1
  C  C276  1  0.854700  0.338800  -0.044100  1
  C  C277  1  0.952500  0.188200  0.666800  1
  C  C278  1  0.953400  0.128200  0.774700  1
  C  C279  1  0.809500  0.133900  0.699800  1
  C  C280  1  0.869900  0.291300  0.729500  1
  C  C281  1  0.987500  0.195200  0.633400  1
  C  C282  1  1.025400  0.103000  0.779800  1
  C  C283  1  0.778100  0.104600  0.655700  1
  C  C284  1  0.938800  0.309500  0.766300  1
  C  C285  1  1.030500  0.209500  0.592900  1
  C  C286  1  1.073100  0.051200  0.817600  1
  C  C287  1  0.706200  0.060300  0.639700  1
  C  C288  1  0.906600  0.408600  0.749900  1
  C  C289  1  1.045100  0.285000  0.579200  1
  C  C290  1  1.057200  0.148300  0.563500  1
  C  C291  1  1.019600  0.346100  0.606200  1
  C  C292  1  1.088800  0.300200  0.537500  1
  C  C293  1  1.101300  0.163700  0.523200  1
  C  C294  1  1.045400  0.073500  0.578000  1
  C  C295  1  1.032200  0.420900  0.591400  1
  C  C296  1  1.114300  0.241700  0.510200  1
  C  C297  1  1.100600  0.378300  0.522800  1
  C  C298  1  1.131500  0.104800  0.497300  1
  C  C299  1  1.072300  0.014800  0.549700  1
  C  C300  1  1.003000  0.480200  0.619700  1
  C  C301  1  1.074500  0.435300  0.551500  1
  C  C302  1  1.153300  0.253100  0.467300  1
  C  C303  1  1.119100  0.029800  0.510600  1
  C  C304  1  1.054900  -0.063700  0.563800  1
  C  C305  1  1.020300  0.551300  0.605700  1
  C  C306  1  1.090500  0.512900  0.535400  1
  C  C307  1  1.183500  0.259700  0.429300  1
  C  C308  1  1.151400  -0.030600  0.484300  1
  C  C309  1  1.088000  -0.117500  0.537200  1
  C  C310  1  1.061700  0.565600  0.565300  1
  C  C311  1  1.134400  -0.101700  0.499200  1
  C  C312  1  1.026300  0.682400  0.597300  1
  C  C313  1  1.174500  0.317100  0.315900  1
  C  C314  1  1.172500  0.149600  0.342300  1
  C  C315  1  1.319200  0.246300  0.374600  1
  C  C316  1  1.127000  -0.231500  0.507100  1
  C  C317  1  1.214800  0.402800  0.338900  1
  C  C318  1  1.083300  0.150800  0.337700  1
  C  C319  1  1.362800  0.172900  0.397000  1
  C  C320  1  1.168000  0.426000  0.306000  1
  C  C321  1  1.053700  0.069000  0.318200  1
  C  C322  1  1.354700  0.161200  0.455900  1
  C  C323  1  0.547500  0.688200  -0.166800  1
  C  C324  1  0.546600  0.628200  -0.274700  1
  C  C325  1  0.690500  0.633900  -0.199800  1
  C  C326  1  0.630100  0.791300  -0.229500  1
  C  C327  1  0.512500  0.695200  -0.133400  1
  C  C328  1  0.474600  0.603000  -0.279800  1
  C  C329  1  0.721900  0.604600  -0.155700  1
  C  C330  1  0.561200  0.809500  -0.266300  1
  C  C331  1  0.469500  0.709500  -0.092900  1
  C  C332  1  0.426900  0.551200  -0.317600  1
  C  C333  1  0.793800  0.560300  -0.139700  1
  C  C334  1  0.593400  0.908600  -0.249900  1
  C  C335  1  0.454900  0.785000  -0.079200  1
  C  C336  1  0.442800  0.648300  -0.063500  1
  C  C337  1  0.480400  0.846100  -0.106200  1
  C  C338  1  0.411200  0.800200  -0.037500  1
  C  C339  1  0.398700  0.663700  -0.023200  1
  C  C340  1  0.454600  0.573500  -0.078000  1
  C  C341  1  0.467800  0.920900  -0.091400  1
  C  C342  1  0.385700  0.741700  -0.010200  1
  C  C343  1  0.399400  0.878300  -0.022800  1
  C  C344  1  0.368500  0.604800  0.002700  1
  C  C345  1  0.427700  0.514800  -0.049700  1
  C  C346  1  0.497000  0.980200  -0.119700  1
  C  C347  1  0.425500  0.935300  -0.051500  1
  C  C348  1  0.346700  0.753100  0.032700  1
  C  C349  1  0.380900  0.529800  -0.010600  1
  C  C350  1  0.445100  0.436300  -0.063800  1
  C  C351  1  0.479700  1.051300  -0.105700  1
  C  C352  1  0.409500  1.012900  -0.035400  1
  C  C353  1  0.316500  0.759700  0.070700  1
  C  C354  1  0.348600  0.469400  0.015700  1
  C  C355  1  0.412000  0.382500  -0.037200  1
  C  C356  1  0.438300  1.065600  -0.065300  1
  C  C357  1  0.365600  0.398300  0.000800  1
  C  C358  1  0.473700  1.182400  -0.097300  1
  C  C359  1  0.325500  0.817100  0.184100  1
  C  C360  1  0.327500  0.649600  0.157700  1
  C  C361  1  0.180800  0.746300  0.125400  1
  C  C362  1  0.373000  0.268500  -0.007100  1
  C  C363  1  0.285200  0.902800  0.161100  1
  C  C364  1  0.416700  0.650800  0.162300  1
  C  C365  1  0.137200  0.672900  0.103000  1
  C  C366  1  0.332000  0.926000  0.194000  1
  C  C367  1  0.446300  0.569000  0.181800  1
  C  C368  1  0.145300  0.661200  0.044100  1
  O  O369  1  0.885200  0.642200  0.244500  1
  O  O370  1  0.800200  -0.170000  0.326700  1
  O  O371  1  0.815600  0.667100  0.309700  1
  O  O372  1  0.727700  -0.145600  0.389400  1
  O  O373  1  0.614800  0.142200  0.255500  1
  O  O374  1  0.699800  -0.670000  0.173300  1
  O  O375  1  0.684400  0.167100  0.190300  1
  O  O376  1  0.772300  -0.645600  0.110600  1
  O  O377  1  1.114800  -0.642200  0.755500  1
  O  O378  1  1.199800  0.170000  0.673300  1
  O  O379  1  1.184400  -0.667100  0.690300  1
  O  O380  1  1.272300  0.145600  0.610600  1
  O  O381  1  0.385200  -0.142200  -0.255500  1
  O  O382  1  0.300200  0.670000  -0.173300  1
  O  O383  1  0.315600  -0.167100  -0.190300  1
  O  O384  1  0.227700  0.645600  -0.110600  1
  O  O385  1  1.001100  -0.618500  0.374700  1
  O  O386  1  0.918400  0.195700  0.459600  1
  O  O387  1  0.931600  -0.644100  0.440100  1
  O  O388  1  0.840100  0.168600  0.520500  1
  O  O389  1  0.498900  -0.118500  0.125300  1
  O  O390  1  0.581600  0.695700  0.040400  1
  O  O391  1  0.568400  -0.144100  0.059900  1
  O  O392  1  0.659900  0.668600  -0.020500  1
  O  O393  1  0.998900  0.618500  0.625300  1
  O  O394  1  1.081600  -0.195700  0.540400  1
  O  O395  1  1.068400  0.644100  0.559900  1
  O  O396  1  1.159900  -0.168600  0.479500  1
  O  O397  1  0.501100  1.118500  -0.125300  1
  O  O398  1  0.418400  0.304300  -0.040400  1
  O  O399  1  0.431600  1.144100  -0.059900  1
  O  O400  1  0.340100  0.331400  0.020500  1
  Si  Si401  1  0.980300  0.210100  0.143440  1.0
  Si  Si402  1  0.625700  0.296500  0.483960  1
  Si  Si403  1  0.519700  -0.289900  0.356560  1.0
  Si  Si404  1  0.874300  -0.203500  0.016040  1
  Si  Si405  1  1.019700  -0.210100  0.856560  1.0
  Si  Si406  1  1.374300  -0.296500  0.516040  1
  Si  Si407  1  0.480300  0.289900  -0.356560  1.0
  Si  Si408  1  0.125700  0.203500  -0.016040  1
  Si  Si409  1  1.100200  -0.184900  0.276880  1.0
  Si  Si410  1  0.786000  -0.243800  0.634790  1
  Si  Si411  1  0.399800  0.315100  0.223120  1.0
  Si  Si412  1  0.714000  0.256200  -0.134790  1
  Si  Si413  1  0.899800  0.184900  0.723120  1.0
  Si  Si414  1  1.214000  0.243800  0.365210  1
  Si  Si415  1  0.600200  0.684900  -0.223120  1.0
  Si  Si416  1  0.286000  0.743800  0.134790  1
