# generated using pymatgen
data_SiH13C14S
_symmetry_space_group_name_H-M   'P 1'
_cell_length_a   6.33760000
_cell_length_b   13.09270000
_cell_length_c   23.14600000
_cell_angle_alpha   87.71000000
_cell_angle_beta   87.46000000
_cell_angle_gamma   81.20000000
_symmetry_Int_Tables_number   1
_chemical_formula_structural   SiH13C14S
_chemical_formula_sum   'Si6 H78 C84 S6'
_cell_volume   1895.02545033
_cell_formula_units_Z   6
loop_
 _symmetry_equiv_pos_site_id
 _symmetry_equiv_pos_as_xyz
  1  'x, y, z'
loop_
 _atom_site_type_symbol
 _atom_site_label
 _atom_site_symmetry_multiplicity
 _atom_site_fract_x
 _atom_site_fract_y
 _atom_site_fract_z
 _atom_site_occupancy
  C  C1  1  0.889400  0.714800  0.489100  1
  C  C2  1  0.513000  0.639900  0.554800  1
  C  C3  1  0.969000  0.551900  0.584600  1
  C  C4  1  0.797000  0.773100  0.612400  1
  C  C5  1  0.939400  0.739600  0.442100  1
  C  C6  1  1.023600  0.779600  0.387900  1
  C  C7  1  1.187400  0.836600  0.387500  1
  C  C8  1  0.938200  0.763500  0.334200  1
  C  C9  1  1.275100  0.881200  0.337800  1
  C  C10  1  1.030500  0.807700  0.284400  1
  C  C11  1  0.766200  0.707800  0.321100  1
  C  C12  1  1.450200  0.938200  0.350700  1
  C  C13  1  1.193900  0.864400  0.283900  1
  C  C14  1  1.482200  0.931500  0.410100  1
  C  C15  1  0.736700  0.711000  0.260500  1
  C  C16  1  0.633900  0.655300  0.357500  1
  C  C17  1  1.575200  0.993900  0.314100  1
  C  C18  1  1.273300  0.903400  0.230000  1
  C  C19  1  1.647400  0.974900  0.433200  1
  C  C20  1  0.580500  0.664100  0.237600  1
  C  C21  1  0.475400  0.610700  0.333800  1
  C  C22  1  1.735500  1.038000  0.338000  1
  C  C23  1  1.337100  0.930300  0.183100  1
  C  C24  1  1.769500  1.031100  0.395500  1
  C  C25  1  0.451300  0.613100  0.274900  1
  C  C26  1  1.211000  1.002500  0.064500  1
  C  C27  1  1.613700  0.846000  0.082800  1
  C  C28  1  1.607000  1.066600  0.118200  1
  C  C29  1  1.110600  1.285200  0.510900  1
  C  C30  1  1.487000  1.360100  0.445200  1
  C  C31  1  1.031000  1.448100  0.415400  1
  C  C32  1  1.203000  1.226900  0.387600  1
  C  C33  1  1.060600  1.260400  0.557900  1
  C  C34  1  0.976400  1.220400  0.612100  1
  C  C35  1  0.812600  1.163400  0.612500  1
  C  C36  1  1.061800  1.236500  0.665800  1
  C  C37  1  0.724900  1.118800  0.662200  1
  C  C38  1  0.969500  1.192300  0.715600  1
  C  C39  1  1.233800  1.292200  0.678900  1
  C  C40  1  0.549800  1.061800  0.649300  1
  C  C41  1  0.806100  1.135600  0.716100  1
  C  C42  1  0.517800  1.068500  0.589900  1
  C  C43  1  1.263300  1.289000  0.739500  1
  C  C44  1  1.366100  1.344700  0.642500  1
  C  C45  1  0.424800  1.006100  0.685900  1
  C  C46  1  0.726700  1.096600  0.770000  1
  C  C47  1  0.352600  1.025100  0.566800  1
  C  C48  1  1.419500  1.335900  0.762400  1
  C  C49  1  1.524600  1.389300  0.666200  1
  C  C50  1  0.264500  0.962000  0.662000  1
  C  C51  1  0.662900  1.069700  0.816900  1
  C  C52  1  0.230500  0.968900  0.604500  1
  C  C53  1  1.548700  1.386900  0.725100  1
  C  C54  1  0.789000  0.997500  0.935500  1
  C  C55  1  0.386300  1.154000  0.917200  1
  C  C56  1  0.393000  0.933400  0.881800  1
  C  C57  1  1.732500  0.394600  0.155600  1
  C  C58  1  2.041000  0.428300  0.242600  1
  C  C59  1  1.657000  0.321400  0.278100  1
  C  C60  1  2.020900  0.212100  0.205000  1
  C  C61  1  1.663700  0.433700  0.110500  1
  C  C62  1  1.583400  0.470500  0.055500  1
  C  C63  1  1.411600  0.427800  0.034500  1
  C  C64  1  1.671000  0.543500  0.020500  1
  C  C65  1  1.329000  0.456500  -0.020500  1
  C  C66  1  1.588400  0.572200  -0.034500  1
  C  C67  1  1.843300  0.600400  0.030300  1
  C  C68  1  1.416600  0.529500  -0.055500  1
  C  C69  1  1.156700  0.399600  -0.030300  1
  C  C70  1  1.110200  0.334900  0.016300  1
  C  C71  1  1.889800  0.665100  -0.016300  1
  C  C72  1  1.971100  0.598700  0.079800  1
  C  C73  1  1.336300  0.566300  -0.110500  1
  C  C74  1  1.028900  0.401300  -0.079800  1
  C  C75  1  0.951200  0.274800  0.017300  1
  C  C76  1  2.048800  0.725200  -0.017300  1
  C  C77  1  2.128400  0.660000  0.079000  1
  C  C78  1  1.267500  0.605400  -0.155600  1
  C  C79  1  0.871600  0.340000  -0.079000  1
  C  C80  1  0.825700  0.279500  -0.031400  1
  C  C81  1  2.174300  0.720500  0.031400  1
  C  C82  1  0.959000  0.571700  -0.242600  1
  C  C83  1  1.343000  0.678600  -0.278100  1
  C  C84  1  0.979100  0.787900  -0.205000  1
  H  H85  1  0.512600  0.589200  0.524800  1
  H  H86  1  0.417900  0.703500  0.544500  1
  H  H87  1  0.463900  0.611500  0.592000  1
  H  H88  1  0.948800  0.494100  0.560900  1
  H  H89  1  0.936600  0.535300  0.625400  1
  H  H90  1  1.118100  0.564100  0.580000  1
  H  H91  1  0.733600  0.753800  0.650000  1
  H  H92  1  0.714600  0.837500  0.597400  1
  H  H93  1  0.944900  0.783000  0.617100  1
  H  H94  1  0.652900  0.650400  0.398100  1
  H  H95  1  1.551300  1.001400  0.273900  1
  H  H96  1  1.675700  0.966600  0.473300  1
  H  H97  1  0.561700  0.666667  0.197100  1
  H  H98  1  0.381100  0.577700  0.358600  1
  H  H99  1  1.824300  1.074300  0.313300  1
  H  H100  1  1.877300  1.064600  0.410400  1
  H  H101  1  0.344600  0.579400  0.259700  1
  H  H102  1  1.115500  0.950100  0.068300  1
  H  H103  1  1.260700  1.009000  0.024100  1
  H  H104  1  1.133300  1.069200  0.076800  1
  H  H105  1  1.758300  0.840900  0.097100  1
  H  H106  1  1.619800  0.850600  0.040400  1
  H  H107  1  1.551700  0.784500  0.095900  1
  H  H108  1  1.521500  1.124600  0.138000  1
  H  H109  1  1.654000  1.090200  0.079700  1
  H  H110  1  1.732800  1.040400  0.140800  1
  H  H111  1  1.487400  1.410800  0.475200  1
  H  H112  1  1.582100  1.296500  0.455500  1
  H  H113  1  1.536100  1.388500  0.408000  1
  H  H114  1  1.051200  1.505900  0.439100  1
  H  H115  1  1.063400  1.464700  0.374600  1
  H  H116  1  0.881900  1.435900  0.420000  1
  H  H117  1  1.266400  1.246200  0.350000  1
  H  H118  1  1.285400  1.162500  0.402600  1
  H  H119  1  1.055100  1.217000  0.382900  1
  H  H120  1  1.347100  1.349600  0.601900  1
  H  H121  1  0.448700  0.998600  0.726100  1
  H  H122  1  0.324300  1.033400  0.526700  1
  H  H123  1  1.438300  1.333333  0.802900  1
  H  H124  1  1.618900  1.422300  0.641400  1
  H  H125  1  0.175700  0.925700  0.686700  1
  H  H126  1  0.122700  0.935400  0.589600  1
  H  H127  1  1.655400  1.420600  0.740300  1
  H  H128  1  0.884500  1.049900  0.931700  1
  H  H129  1  0.739300  0.991000  0.975900  1
  H  H130  1  0.866700  0.930800  0.923200  1
  H  H131  1  0.241700  1.159100  0.902900  1
  H  H132  1  0.380200  1.149400  0.959600  1
  H  H133  1  0.448300  1.215500  0.904100  1
  H  H134  1  0.478500  0.875400  0.862000  1
  H  H135  1  0.346000  0.909800  0.920300  1
  H  H136  1  0.267200  0.959600  0.859200  1
  H  H137  1  2.141700  0.438900  0.210200  1
  H  H138  1  2.120900  0.398700  0.276200  1
  H  H139  1  1.956500  0.494700  0.252500  1
  H  H140  1  1.570200  0.388200  0.286000  1
  H  H141  1  1.726400  0.292800  0.313500  1
  H  H142  1  1.565700  0.273600  0.265000  1
  H  H143  1  1.927100  0.166700  0.190700  1
  H  H144  1  2.087300  0.180800  0.240300  1
  H  H145  1  2.132400  0.221600  0.175500  1
  H  H146  1  1.947300  0.555700  0.112800  1
  H  H147  1  1.052700  0.444300  -0.112800  1
  H  H148  1  0.926700  0.231300  0.049900  1
  H  H149  1  2.073300  0.768700  -0.049900  1
  H  H150  1  2.208900  0.660900  0.112600  1
  H  H151  1  0.791100  0.339100  -0.112600  1
  H  H152  1  0.709800  0.241300  -0.031500  1
  H  H153  1  2.290200  0.758700  0.031500  1
  H  H154  1  0.858300  0.561100  -0.210200  1
  H  H155  1  0.879100  0.601300  -0.276200  1
  H  H156  1  1.043500  0.505300  -0.252500  1
  H  H157  1  1.429800  0.611800  -0.286000  1
  H  H158  1  1.273600  0.707200  -0.313500  1
  H  H159  1  1.434300  0.726400  -0.265000  1
  H  H160  1  1.072900  0.833300  -0.190700  1
  H  H161  1  0.912700  0.819200  -0.240300  1
  H  H162  1  0.867600  0.778400  -0.175500  1
  S  S163  1  1.312200  0.861600  0.450110  1
  S  S164  1  0.910100  0.779800  0.220950  1
  S  S165  1  0.687800  1.138400  0.549890  1
  S  S166  1  1.089900  1.220200  0.779050  1
  S  S167  1  1.285100  0.338700  0.072900  1
  S  S168  1  1.714900  0.661300  -0.072900  1
  Si  Si169  1  0.790100  0.669200  0.561110  1.0
  Si  Si170  1  1.445900  0.962900  0.111130  1
  Si  Si171  1  1.209900  1.330800  0.438890  1.0
  Si  Si172  1  0.554100  1.037100  0.888870  1
  Si  Si173  1  1.862400  0.339100  0.221490  1.0
  Si  Si174  1  1.137600  0.660900  -0.221490  1
