# generated using pymatgen
data_SiH44C35S3F
_symmetry_space_group_name_H-M   'P 1'
_cell_length_a   10.53890000
_cell_length_b   17.78930000
_cell_length_c   18.97210000
_cell_angle_alpha   70.21810000
_cell_angle_beta   82.05210000
_cell_angle_gamma   86.48690000
_symmetry_Int_Tables_number   1
_chemical_formula_structural   SiH44C35S3F
_chemical_formula_sum   'Si4 H176 C140 S12 F4'
_cell_volume   3314.43248600
_cell_formula_units_Z   4
loop_
 _symmetry_equiv_pos_site_id
 _symmetry_equiv_pos_as_xyz
  1  'x, y, z'
loop_
 _atom_site_type_symbol
 _atom_site_label
 _atom_site_symmetry_multiplicity
 _atom_site_fract_x
 _atom_site_fract_y
 _atom_site_fract_z
 _atom_site_occupancy
  C  C1  1  0.337590  0.807310  0.282370  1
  C  C2  1  0.476670  0.927180  0.145750  1
  C  C3  1  0.252910  0.830410  0.133930  1
  C  C4  1  0.505900  0.742400  0.176630  1
  C  C5  1  0.305980  0.792510  0.348980  1
  C  C6  1  0.386710  0.996740  0.152200  1
  C  C7  1  0.272910  0.859960  0.047690  1
  C  C8  1  0.432800  0.663700  0.197290  1
  C  C9  1  0.274800  0.772500  0.428730  1
  C  C10  1  0.447100  1.079490  0.116280  1
  C  C11  1  0.156900  0.848160  0.012540  1
  C  C12  1  0.512000  0.587980  0.213060  1
  C  C13  1  0.282700  0.692000  0.472200  1
  C  C14  1  0.240000  0.826200  0.468400  1
  C  C15  1  0.547000  1.097390  0.159100  1
  C  C16  1  0.031150  0.878760  0.043530  1
  C  C17  1  0.434400  0.514030  0.223560  1
  C  C18  1  0.260300  0.663500  0.552200  1
  C  C19  1  0.218500  0.798000  0.548200  1
  C  C20  1  0.224000  0.910000  0.440790  1
  C  C21  1  0.491300  1.113760  0.230650  1
  C  C22  1  -0.082500  0.871720  0.005740  1
  C  C23  1  0.505100  0.436130  0.244790  1
  C  C24  1  0.274400  0.579700  0.578880  1
  C  C25  1  0.225900  0.717500  0.592210  1
  C  C26  1  0.311600  0.543800  0.526300  1
  C  C27  1  0.186600  0.946600  0.492700  1
  C  C28  1  0.592700  1.132280  0.271620  1
  C  C29  1  -0.208800  0.892080  0.042590  1
  C  C30  1  0.425900  0.366850  0.250930  1
  C  C31  1  0.197610  0.696880  0.672380  1
  C  C32  1  0.329400  0.459100  0.538600  1
  C  C33  1  0.167000  1.031700  0.479000  1
  C  C34  1  0.168890  0.680590  0.739560  1
  C  C35  1  0.363900  0.425350  0.483860  1
  C  C36  1  0.129000  1.067620  0.531570  1
  C  C37  1  0.380300  0.340300  0.513100  1
  C  C38  1  0.355100  0.311000  0.593200  1
  C  C39  1  0.113700  1.152500  0.500100  1
  C  C40  1  0.140900  1.179800  0.419900  1
  C  C41  1  0.040330  0.756620  0.848000  1
  C  C42  1  0.213040  0.608490  0.906040  1
  C  C43  1  -0.037500  0.588320  0.852660  1
  C  C44  1  0.412900  0.287800  0.473300  1
  C  C45  1  0.365600  0.230300  0.634200  1
  C  C46  1  0.075800  1.207100  0.536700  1
  C  C47  1  0.132100  1.259500  0.376100  1
  C  C48  1  -0.052600  0.804200  0.792890  1
  C  C49  1  0.320000  0.661310  0.908850  1
  C  C50  1  0.010300  0.508690  0.842000  1
  C  C51  1  0.423000  0.206600  0.514200  1
  C  C52  1  0.402000  0.177800  0.594400  1
  C  C53  1  0.062200  1.287500  0.494000  1
  C  C54  1  0.096100  1.313900  0.414100  1
  C  C55  1  -0.087770  0.887600  0.797030  1
  C  C56  1  0.423430  0.615430  0.956290  1
  C  C57  1  -0.096500  0.451900  0.850990  1
  C  C58  1  0.419800  0.093500  0.625800  1
  C  C59  1  0.081100  1.397500  0.380200  1
  C  C60  1  0.025130  0.942780  0.778170  1
  C  C61  1  0.529200  0.668590  0.959700  1
  C  C62  1  -0.044100  0.373710  0.836400  1
  C  C63  1  0.457000  0.059700  0.571600  1
  C  C64  1  0.043000  1.435300  0.432100  1
  C  C65  1  -0.011900  1.027920  0.775930  1
  C  C66  1  0.641000  0.622210  0.996540  1
  C  C67  1  -0.002800  0.382730  0.754900  1
  C  C68  1  0.102000  1.081010  0.760920  1
  C  C69  1  0.743400  0.676480  1.002120  1
  C  C70  1  0.041900  0.303100  0.744100  1
  C  C71  1  0.662410  0.192690  0.717630  1
  C  C72  1  0.523330  0.072820  0.854250  1
  C  C73  1  0.747090  0.169590  0.866070  1
  C  C74  1  0.494100  0.257600  0.823370  1
  C  C75  1  0.694020  0.207490  0.651020  1
  C  C76  1  0.613290  0.003260  0.847800  1
  C  C77  1  0.727090  0.140040  0.952310  1
  C  C78  1  0.567200  0.336300  0.802710  1
  C  C79  1  0.725200  0.227500  0.571270  1
  C  C80  1  0.552900  -0.079490  0.883720  1
  C  C81  1  0.843100  0.151840  0.987460  1
  C  C82  1  0.488000  0.412020  0.786940  1
  C  C83  1  0.717300  0.308000  0.527800  1
  C  C84  1  0.760000  0.173800  0.531600  1
  C  C85  1  0.453000  -0.097390  0.840900  1
  C  C86  1  0.968850  0.121240  0.956470  1
  C  C87  1  0.565600  0.485970  0.776440  1
  C  C88  1  0.739700  0.336500  0.447800  1
  C  C89  1  0.781500  0.202000  0.451800  1
  C  C90  1  0.776000  0.090000  0.559210  1
  C  C91  1  0.508700  -0.113760  0.769350  1
  C  C92  1  1.082500  0.128280  0.994260  1
  C  C93  1  0.494900  0.563870  0.755210  1
  C  C94  1  0.725600  0.420300  0.421120  1
  C  C95  1  0.774100  0.282500  0.407790  1
  C  C96  1  0.688400  0.456200  0.473700  1
  C  C97  1  0.813400  0.053400  0.507300  1
  C  C98  1  0.407300  -0.132280  0.728380  1
  C  C99  1  1.208800  0.107920  0.957410  1
  C  C100  1  0.574100  0.633150  0.749070  1
  C  C101  1  0.802390  0.303120  0.327620  1
  C  C102  1  0.670600  0.540900  0.461400  1
  C  C103  1  0.833000  -0.031700  0.521000  1
  C  C104  1  0.831110  0.319410  0.260440  1
  C  C105  1  0.636100  0.574650  0.516140  1
  C  C106  1  0.871000  -0.067620  0.468430  1
  C  C107  1  0.619700  0.659700  0.486900  1
  C  C108  1  0.644900  0.689000  0.406800  1
  C  C109  1  0.886300  -0.152500  0.499900  1
  C  C110  1  0.859100  -0.179800  0.580100  1
  C  C111  1  0.959670  0.243380  0.152000  1
  C  C112  1  0.786960  0.391510  0.093960  1
  C  C113  1  1.037500  0.411680  0.147340  1
  C  C114  1  0.587100  0.712200  0.526700  1
  C  C115  1  0.634400  0.769700  0.365800  1
  C  C116  1  0.924200  -0.207100  0.463300  1
  C  C117  1  0.867900  -0.259500  0.623900  1
  C  C118  1  1.052600  0.195800  0.207110  1
  C  C119  1  0.680000  0.338690  0.091150  1
  C  C120  1  0.989700  0.491310  0.158000  1
  C  C121  1  0.577000  0.793400  0.485800  1
  C  C122  1  0.598000  0.822200  0.405600  1
  C  C123  1  0.937800  -0.287500  0.506000  1
  C  C124  1  0.903900  -0.313900  0.585900  1
  C  C125  1  1.087770  0.112400  0.202970  1
  C  C126  1  0.576570  0.384570  0.043710  1
  C  C127  1  1.096500  0.548100  0.149010  1
  C  C128  1  0.580200  0.906500  0.374200  1
  C  C129  1  0.918900  -0.397500  0.619800  1
  C  C130  1  0.974870  0.057220  0.221830  1
  C  C131  1  0.470800  0.331410  0.040300  1
  C  C132  1  1.044100  0.626290  0.163600  1
  C  C133  1  0.543000  0.940300  0.428400  1
  C  C134  1  0.957000  -0.435300  0.567900  1
  C  C135  1  1.011900  -0.027920  0.224070  1
  C  C136  1  0.359000  0.377790  0.003460  1
  C  C137  1  1.002800  0.617270  0.245100  1
  C  C138  1  0.898000  -0.081010  0.239080  1
  C  C139  1  0.256600  0.323520  -0.002120  1
  C  C140  1  0.958100  0.696900  0.255900  1
  F  F141  1  0.238310  0.951140  0.365920  1
  F  F142  1  0.253680  0.537080  0.653670  1
  F  F143  1  0.761690  0.048860  0.634080  1
  F  F144  1  0.746320  0.462920  0.346330  1
  H  H145  1  0.549600  0.924500  0.174400  1
  H  H146  1  0.511700  0.938200  0.092100  1
  H  H147  1  0.218400  0.775700  0.151600  1
  H  H148  1  0.186700  0.864900  0.150500  1
  H  H149  1  0.551500  0.755300  0.124800  1
  H  H150  1  0.570800  0.735000  0.211600  1
  H  H151  1  0.309700  0.996000  0.127900  1
  H  H152  1  0.358200  0.988000  0.206300  1
  H  H153  1  0.347600  0.831300  0.030400  1
  H  H154  1  0.293200  0.917500  0.029200  1
  H  H155  1  0.370100  0.659100  0.242500  1
  H  H156  1  0.383500  0.667600  0.155400  1
  H  H157  1  0.487700  1.084600  0.064600  1
  H  H158  1  0.377900  1.120500  0.111600  1
  H  H159  1  0.172000  0.875900  -0.042700  1
  H  H160  1  0.149000  0.790500  0.021100  1
  H  H161  1  0.552500  0.579500  0.259300  1
  H  H162  1  0.581400  0.594200  0.170700  1
  H  H163  1  0.607500  1.051400  0.172400  1
  H  H164  1  0.596500  1.144400  0.125300  1
  H  H165  1  0.013400  0.848600  0.098200  1
  H  H166  1  0.040800  0.935600  0.037800  1
  H  H167  1  0.361000  0.511000  0.263000  1
  H  H168  1  0.399100  0.521600  0.175900  1
  H  H169  1  0.442900  1.066500  0.264900  1
  H  H170  1  0.430300  1.159500  0.217700  1
  H  H171  1  -0.069800  0.907500  -0.047500  1
  H  H172  1  -0.085300  0.816300  0.005500  1
  H  H173  1  0.536800  0.426700  0.293800  1
  H  H174  1  0.580500  0.439200  0.206600  1
  H  H175  1  0.650900  1.086200  0.286900  1
  H  H176  1  0.551300  1.143800  0.316500  1
  H  H177  1  0.641300  1.178900  0.237900  1
  H  H178  1  -0.226500  0.853500  0.093700  1
  H  H179  1  -0.276700  0.890000  0.012900  1
  H  H180  1  -0.205800  0.946000  0.045300  1
  H  H181  1  0.352300  0.362300  0.289800  1
  H  H182  1  0.478000  0.317700  0.264800  1
  H  H183  1  0.395500  0.375100  0.202300  1
  H  H184  1  0.375800  0.455300  0.431500  1
  H  H185  1  0.114100  1.039100  0.584200  1
  H  H186  1  -0.001900  0.747100  0.900200  1
  H  H187  1  0.116400  0.789700  0.840700  1
  H  H188  1  0.165500  0.587000  0.957300  1
  H  H189  1  0.252700  0.562500  0.892400  1
  H  H190  1  -0.083300  0.577200  0.904200  1
  H  H191  1  -0.099200  0.614100  0.816400  1
  H  H192  1  0.427700  0.306600  0.419700  1
  H  H193  1  0.348300  0.211400  0.687700  1
  H  H194  1  0.059200  1.190100  0.590300  1
  H  H195  1  0.149900  1.276400  0.322600  1
  H  H196  1  -0.013600  0.809800  0.740800  1
  H  H197  1  -0.132200  0.773400  0.803300  1
  H  H198  1  0.360400  0.688800  0.856700  1
  H  H199  1  0.282000  0.702800  0.929800  1
  H  H200  1  0.058600  0.520100  0.791000  1
  H  H201  1  0.070000  0.482300  0.879300  1
  H  H202  1  -0.151300  0.912600  0.761700  1
  H  H203  1  -0.129200  0.882000  0.848600  1
  H  H204  1  0.462300  0.574400  0.935000  1
  H  H205  1  0.382900  0.587400  1.008300  1
  H  H206  1  -0.158300  0.478600  0.815100  1
  H  H207  1  -0.142600  0.438100  0.902800  1
  H  H208  1  0.407000  0.064400  0.678300  1
  H  H209  1  0.095700  1.424600  0.327300  1
  H  H210  1  0.071000  0.944800  0.728400  1
  H  H211  1  0.085100  0.920100  0.816200  1
  H  H212  1  0.560500  0.702800  0.907700  1
  H  H213  1  0.492600  0.704100  0.988100  1
  H  H214  1  0.029800  0.353500  0.864900  1
  H  H215  1  -0.111600  0.332800  0.856700  1
  H  H216  1  0.476500  0.004400  0.582300  1
  H  H217  1  0.026700  1.491200  0.419300  1
  H  H218  1  -0.068100  1.051700  0.736100  1
  H  H219  1  -0.061400  1.025900  0.824800  1
  H  H220  1  0.680100  0.588400  0.967000  1
  H  H221  1  0.609500  0.586500  1.047900  1
  H  H222  1  0.068100  0.421300  0.734800  1
  H  H223  1  -0.075300  0.404800  0.725600  1
  H  H224  1  0.155400  1.059700  0.801900  1
  H  H225  1  0.072200  1.135100  0.758100  1
  H  H226  1  0.152400  1.082700  0.713000  1
  H  H227  1  0.772800  0.713300  0.951700  1
  H  H228  1  0.816000  0.643800  1.023600  1
  H  H229  1  0.707100  0.707100  1.034700  1
  H  H230  1  0.110800  0.279800  0.775000  1
  H  H231  1  0.073400  0.312500  0.690900  1
  H  H232  1  -0.030200  0.266300  0.759700  1
  H  H233  1  0.450400  0.075500  0.825600  1
  H  H234  1  0.488300  0.061800  0.907900  1
  H  H235  1  0.781600  0.224300  0.848400  1
  H  H236  1  0.813300  0.135100  0.849500  1
  H  H237  1  0.448500  0.244700  0.875200  1
  H  H238  1  0.429200  0.265000  0.788400  1
  H  H239  1  0.690300  0.004000  0.872100  1
  H  H240  1  0.641800  0.012000  0.793700  1
  H  H241  1  0.652400  0.168700  0.969600  1
  H  H242  1  0.706800  0.082500  0.970800  1
  H  H243  1  0.629900  0.340900  0.757500  1
  H  H244  1  0.616500  0.332400  0.844600  1
  H  H245  1  0.512300  -0.084600  0.935400  1
  H  H246  1  0.622100  -0.120500  0.888400  1
  H  H247  1  0.828000  0.124100  1.042700  1
  H  H248  1  0.851000  0.209500  0.978900  1
  H  H249  1  0.447500  0.420500  0.740700  1
  H  H250  1  0.418600  0.405800  0.829300  1
  H  H251  1  0.392500  -0.051400  0.827600  1
  H  H252  1  0.403500  -0.144400  0.874700  1
  H  H253  1  0.986600  0.151400  0.901800  1
  H  H254  1  0.959200  0.064400  0.962200  1
  H  H255  1  0.639000  0.489000  0.737000  1
  H  H256  1  0.600900  0.478400  0.824100  1
  H  H257  1  0.557100  -0.066500  0.735100  1
  H  H258  1  0.569700  -0.159500  0.782300  1
  H  H259  1  1.069800  0.092500  1.047500  1
  H  H260  1  1.085300  0.183700  0.994500  1
  H  H261  1  0.463200  0.573300  0.706200  1
  H  H262  1  0.419500  0.560800  0.793400  1
  H  H263  1  0.349100  -0.086200  0.713100  1
  H  H264  1  0.448700  -0.143800  0.683500  1
  H  H265  1  0.358700  -0.178900  0.762100  1
  H  H266  1  1.226500  0.146500  0.906300  1
  H  H267  1  1.276700  0.110000  0.987100  1
  H  H268  1  1.205800  0.054000  0.954700  1
  H  H269  1  0.647700  0.637700  0.710200  1
  H  H270  1  0.522000  0.682300  0.735200  1
  H  H271  1  0.604500  0.624900  0.797700  1
  H  H272  1  0.624200  0.544700  0.568500  1
  H  H273  1  0.885900  -0.039100  0.415800  1
  H  H274  1  1.001900  0.252900  0.099800  1
  H  H275  1  0.883600  0.210300  0.159300  1
  H  H276  1  0.834500  0.413000  0.042700  1
  H  H277  1  0.747300  0.437500  0.107600  1
  H  H278  1  1.083300  0.422800  0.095800  1
  H  H279  1  1.099200  0.385900  0.183600  1
  H  H280  1  0.572300  0.693400  0.580300  1
  H  H281  1  0.651700  0.788600  0.312300  1
  H  H282  1  0.940800  -0.190100  0.409700  1
  H  H283  1  0.850100  -0.276400  0.677400  1
  H  H284  1  1.013600  0.190200  0.259200  1
  H  H285  1  1.132200  0.226600  0.196700  1
  H  H286  1  0.639600  0.311200  0.143300  1
  H  H287  1  0.718000  0.297200  0.070200  1
  H  H288  1  0.941400  0.479900  0.209000  1
  H  H289  1  0.930000  0.517700  0.120700  1
  H  H290  1  1.151300  0.087400  0.238300  1
  H  H291  1  1.129200  0.118000  0.151400  1
  H  H292  1  0.537700  0.425600  0.065000  1
  H  H293  1  0.617100  0.412600  -0.008300  1
  H  H294  1  1.158300  0.521400  0.184900  1
  H  H295  1  1.142600  0.561900  0.097200  1
  H  H296  1  0.593000  0.935600  0.321700  1
  H  H297  1  0.904300  -0.424600  0.672700  1
  H  H298  1  0.929000  0.055200  0.271600  1
  H  H299  1  0.914900  0.079900  0.183800  1
  H  H300  1  0.439500  0.297200  0.092300  1
  H  H301  1  0.507400  0.295900  0.011900  1
  H  H302  1  0.970200  0.646500  0.135100  1
  H  H303  1  1.111600  0.667200  0.143300  1
  H  H304  1  0.523500  0.995600  0.417700  1
  H  H305  1  0.973300  -0.491200  0.580700  1
  H  H306  1  1.068100  -0.051700  0.263900  1
  H  H307  1  1.061400  -0.025900  0.175200  1
  H  H308  1  0.319900  0.411600  0.033000  1
  H  H309  1  0.390500  0.413500  -0.047900  1
  H  H310  1  0.931900  0.578700  0.265200  1
  H  H311  1  1.075300  0.595200  0.274400  1
  H  H312  1  0.844600  -0.059700  0.198100  1
  H  H313  1  0.927800  -0.135100  0.241900  1
  H  H314  1  0.847600  -0.082700  0.287000  1
  H  H315  1  0.227200  0.286700  0.048300  1
  H  H316  1  0.184000  0.356200  -0.023600  1
  H  H317  1  0.292900  0.292900  -0.034700  1
  H  H318  1  0.889200  0.720200  0.225000  1
  H  H319  1  0.926600  0.687500  0.309100  1
  H  H320  1  1.030200  0.733700  0.240300  1
  S  S321  1  0.324220  0.615050  0.435950  1
  S  S322  1  0.178750  0.876420  0.583750  1
  S  S323  1  0.314230  0.388630  0.628720  1
  S  S324  1  0.184410  1.100010  0.387440  1
  S  S325  1  0.465490  0.128120  0.481130  1
  S  S326  1  0.028290  1.369010  0.523660  1
  S  S327  1  0.675780  0.384950  0.564050  1
  S  S328  1  0.821250  0.123580  0.416250  1
  S  S329  1  0.685770  0.611370  0.371280  1
  S  S330  1  0.815590  -0.100010  0.612560  1
  S  S331  1  0.534510  0.871880  0.518870  1
  S  S332  1  0.971710  -0.369010  0.476340  1
  Si  Si333  1  0.396770  0.828120  0.181780  1.0
  Si  Si334  1  0.095420  0.658670  0.838400  1
  Si  Si335  1  0.603230  0.171880  0.818220  1.0
  Si  Si336  1  0.904580  0.341330  0.161600  1
