# generated using pymatgen
data_SiH18C20SF
_symmetry_space_group_name_H-M   'P 1'
_cell_length_a   7.36780000
_cell_length_b   10.37300000
_cell_length_c   12.11590000
_cell_angle_alpha   66.39500000
_cell_angle_beta   87.51800000
_cell_angle_gamma   76.87800000
_symmetry_Int_Tables_number   1
_chemical_formula_structural   SiH18C20SF
_chemical_formula_sum   'Si2 H36 C40 S2 F2'
_cell_volume   825.16236828
_cell_formula_units_Z   2
loop_
 _symmetry_equiv_pos_site_id
 _symmetry_equiv_pos_as_xyz
  1  'x, y, z'
loop_
 _atom_site_type_symbol
 _atom_site_label
 _atom_site_symmetry_multiplicity
 _atom_site_fract_x
 _atom_site_fract_y
 _atom_site_fract_z
 _atom_site_occupancy
  C  C1  1  0.486600  -0.080860  0.292940  1
  C  C2  1  0.699900  0.129000  0.286870  1
  C  C3  1  0.568100  0.132770  0.051940  1
  C  C4  1  0.291300  0.231460  0.208790  1
  C  C5  1  0.485100  -0.204280  0.354300  1
  C  C6  1  0.738100  0.046500  0.422300  1
  C  C7  1  0.874800  0.011100  0.338910  1
  C  C8  1  0.764800  0.080900  0.021940  1
  C  C9  1  0.686400  0.238300  -0.015300  1
  C  C10  1  0.246800  0.382700  0.111230  1
  C  C11  1  0.135700  0.280200  0.114460  1
  C  C12  1  0.490300  -0.352860  0.428220  1
  C  C13  1  0.352500  -0.417520  0.410850  1
  C  C14  1  0.637600  -0.432350  0.515930  1
  C  C15  1  0.202500  -0.337550  0.324640  1
  C  C16  1  0.362400  -0.567650  0.484070  1
  C  C17  1  0.647500  -0.582480  0.589150  1
  C  C18  1  0.777500  -0.368050  0.533150  1
  C  C19  1  0.070000  -0.402750  0.310150  1
  C  C20  1  0.509700  -0.647140  0.571780  1
  C  C21  1  0.222500  -0.631950  0.466850  1
  C  C22  1  0.797500  -0.662450  0.675360  1
  C  C23  1  0.919400  -0.447390  0.617260  1
  C  C24  1  0.080600  -0.552610  0.382740  1
  C  C25  1  0.514900  -0.795720  0.645700  1
  C  C26  1  0.930000  -0.597250  0.689850  1
  C  C27  1  1.073300  -0.402200  0.646600  1
  C  C28  1  -0.073300  -0.597800  0.353400  1
  C  C29  1  -0.184200  -0.489600  0.263200  1
  C  C30  1  0.513400  -0.919140  0.707060  1
  C  C31  1  1.184200  -0.510400  0.736800  1
  C  C32  1  0.300100  -1.129000  0.713130  1
  C  C33  1  0.431900  -1.132770  0.948060  1
  C  C34  1  0.708700  -1.231460  0.791210  1
  C  C35  1  0.261900  -1.046500  0.577700  1
  C  C36  1  0.125200  -1.011100  0.661090  1
  C  C37  1  0.235200  -1.080900  0.978060  1
  C  C38  1  0.313600  -1.238300  1.015300  1
  C  C39  1  0.753200  -1.382700  0.888770  1
  C  C40  1  0.864300  -1.280200  0.885540  1
  F  F41  1  -0.339600  -0.494700  0.213100  1
  F  F42  1  1.339600  -0.505300  0.786900  1
  H  H43  1  0.720000  0.229600  0.254400  1
  H  H44  1  0.467300  0.128400  0.001700  1
  H  H45  1  0.250400  0.223500  0.290600  1
  H  H46  1  0.773200  0.098200  0.468400  1
  H  H47  1  0.661700  -0.023900  0.465800  1
  H  H48  1  0.883300  -0.081300  0.330900  1
  H  H49  1  0.994700  0.040700  0.333500  1
  H  H50  1  0.861600  0.032300  0.088900  1
  H  H51  1  0.781000  0.042900  -0.041800  1
  H  H52  1  0.654000  0.297900  -0.102100  1
  H  H53  1  0.734500  0.287200  0.028600  1
  H  H54  1  0.186700  0.462700  0.134900  1
  H  H55  1  0.335300  0.407500  0.046300  1
  H  H56  1  0.154600  0.241100  0.051500  1
  H  H57  1  0.006000  0.296300  0.140000  1
  H  H58  1  0.194000  -0.237900  0.276600  1
  H  H59  1  0.772300  -0.268800  0.485600  1
  H  H60  1  0.227700  -0.731200  0.514400  1
  H  H61  1  0.806000  -0.762100  0.723400  1
  H  H62  1  1.094500  -0.307600  0.607200  1
  H  H63  1  -0.094500  -0.692400  0.392800  1
  H  H64  1  0.280000  -1.229600  0.745600  1
  H  H65  1  0.532700  -1.128400  0.998300  1
  H  H66  1  0.749600  -1.223500  0.709400  1
  H  H67  1  0.226800  -1.098200  0.531600  1
  H  H68  1  0.338300  -0.976100  0.534200  1
  H  H69  1  0.116700  -0.918700  0.669100  1
  H  H70  1  0.005300  -1.040700  0.666500  1
  H  H71  1  0.138400  -1.032300  0.911100  1
  H  H72  1  0.219000  -1.042900  1.041800  1
  H  H73  1  0.346000  -1.297900  1.102100  1
  H  H74  1  0.265500  -1.287200  0.971400  1
  H  H75  1  0.813300  -1.462700  0.865100  1
  H  H76  1  0.664700  -1.407500  0.953700  1
  H  H77  1  0.845400  -1.241100  0.948500  1
  H  H78  1  0.994000  -1.296300  0.860000  1
  S  S79  1  -0.122300  -0.324700  0.206900  1
  S  S80  1  1.122300  -0.675300  0.793100  1
  Si  Si81  1  0.510340  0.105490  0.207940  1.0
  Si  Si82  1  0.489660  -1.105490  0.792060  1
