# generated using pymatgen
data_SiH26C22S
_symmetry_space_group_name_H-M   'P 1'
_cell_length_a   8.69210000
_cell_length_b   17.72560000
_cell_length_c   13.37780000
_cell_angle_alpha   90.00000000
_cell_angle_beta   100.09380000
_cell_angle_gamma   90.00000000
_symmetry_Int_Tables_number   1
_chemical_formula_structural   SiH26C22S
_chemical_formula_sum   'Si4 H104 C88 S4'
_cell_volume   2029.25137751
_cell_formula_units_Z   4
loop_
 _symmetry_equiv_pos_site_id
 _symmetry_equiv_pos_as_xyz
  1  'x, y, z'
loop_
 _atom_site_type_symbol
 _atom_site_label
 _atom_site_symmetry_multiplicity
 _atom_site_fract_x
 _atom_site_fract_y
 _atom_site_fract_z
 _atom_site_occupancy
  C  C1  1  0.989300  1.064600  0.186300  1
  C  C2  1  0.997200  0.932500  0.043300  1
  C  C3  1  1.084400  0.912820  0.277900  1
  C  C4  1  0.742900  0.947590  0.181100  1
  C  C5  1  1.008100  1.131530  0.198500  1
  C  C6  1  1.140200  0.971500  0.012200  1
  C  C7  1  1.013100  0.846540  0.036600  1
  C  C8  1  1.259300  0.924500  0.279200  1
  C  C9  1  1.044800  0.936000  0.380600  1
  C  C10  1  0.692600  0.865200  0.185000  1
  C  C11  1  0.634300  0.990300  0.098200  1
  C  C12  1  1.032000  1.210850  0.214300  1
  C  C13  1  0.924600  1.253260  0.260100  1
  C  C14  1  1.162600  1.244730  0.184200  1
  C  C15  1  0.791400  1.220530  0.287300  1
  C  C16  1  0.953200  1.332470  0.279700  1
  C  C17  1  1.191900  1.324930  0.203100  1
  C  C18  1  1.266200  1.203530  0.133800  1
  C  C19  1  0.686600  1.261320  0.334000  1
  C  C20  1  0.849600  1.373700  0.328700  1
  C  C21  1  1.086600  1.367190  0.250300  1
  C  C22  1  1.324400  1.359000  0.173700  1
  C  C23  1  1.389900  1.238390  0.103400  1
  C  C24  1  0.552600  1.227600  0.362500  1
  C  C25  1  0.718300  1.340200  0.356900  1
  C  C26  1  1.114200  1.446530  0.266300  1
  C  C27  1  1.421500  1.317000  0.124700  1
  C  C28  1  0.457000  1.268200  0.412400  1
  C  C29  1  0.616300  1.380600  0.408900  1
  C  C30  1  1.137100  1.513500  0.277600  1
  C  C31  1  1.558100  1.341000  0.089800  1
  C  C32  1  1.629900  1.285500  0.043400  1
  C  C33  1  0.317300  1.245800  0.443400  1
  C  C34  1  0.490500  1.346020  0.436500  1
  C  C35  1  0.251800  1.300800  0.494800  1
  C  C36  1  1.049600  1.664670  0.185100  1
  C  C37  1  1.130900  1.645050  0.419200  1
  C  C38  1  1.389800  1.629300  0.287000  1
  C  C39  1  1.099800  1.645600  0.083400  1
  C  C40  1  0.874900  1.649300  0.180000  1
  C  C41  1  1.014600  1.600000  0.459200  1
  C  C42  1  1.098600  1.729400  0.425000  1
  C  C43  1  1.497500  1.584100  0.354500  1
  C  C44  1  1.435900  1.712100  0.284800  1
  C  C45  1  1.010700  0.564600  0.813700  1
  C  C46  1  1.002800  0.432500  0.956700  1
  C  C47  1  0.915600  0.412820  0.722100  1
  C  C48  1  1.257100  0.447590  0.818900  1
  C  C49  1  0.991900  0.631530  0.801500  1
  C  C50  1  0.859800  0.471500  0.987800  1
  C  C51  1  0.986900  0.346540  0.963400  1
  C  C52  1  0.740700  0.424500  0.720800  1
  C  C53  1  0.955200  0.436000  0.619400  1
  C  C54  1  1.307400  0.365200  0.815000  1
  C  C55  1  1.365700  0.490300  0.901800  1
  C  C56  1  0.968000  0.710850  0.785700  1
  C  C57  1  1.075400  0.753260  0.739900  1
  C  C58  1  0.837400  0.744730  0.815800  1
  C  C59  1  1.208600  0.720530  0.712700  1
  C  C60  1  1.046800  0.832470  0.720300  1
  C  C61  1  0.808100  0.824930  0.796900  1
  C  C62  1  0.733800  0.703530  0.866200  1
  C  C63  1  1.313400  0.761320  0.666000  1
  C  C64  1  1.150400  0.873700  0.671300  1
  C  C65  1  0.913400  0.867190  0.749700  1
  C  C66  1  0.675600  0.859000  0.826300  1
  C  C67  1  0.610100  0.738390  0.896600  1
  C  C68  1  1.447400  0.727600  0.637500  1
  C  C69  1  1.281700  0.840200  0.643100  1
  C  C70  1  0.885800  0.946530  0.733700  1
  C  C71  1  0.578500  0.817000  0.875300  1
  C  C72  1  1.543000  0.768200  0.587600  1
  C  C73  1  1.383700  0.880600  0.591100  1
  C  C74  1  0.862900  1.013500  0.722400  1
  C  C75  1  0.441900  0.841000  0.910200  1
  C  C76  1  0.370100  0.785500  0.956600  1
  C  C77  1  1.682700  0.745800  0.556600  1
  C  C78  1  1.509500  0.846020  0.563500  1
  C  C79  1  1.748200  0.800800  0.505200  1
  C  C80  1  0.950400  1.164670  0.814900  1
  C  C81  1  0.869100  1.145050  0.580800  1
  C  C82  1  0.610200  1.129300  0.713000  1
  C  C83  1  0.900200  1.145600  0.916600  1
  C  C84  1  1.125100  1.149300  0.820000  1
  C  C85  1  0.985400  1.100000  0.540800  1
  C  C86  1  0.901400  1.229400  0.575000  1
  C  C87  1  0.502500  1.084100  0.645500  1
  C  C88  1  0.564100  1.212100  0.715200  1
  H  H89  1  0.904300  0.947200  -0.008200  1
  H  H90  1  1.063200  0.857500  0.269600  1
  H  H91  1  0.728700  0.970700  0.247100  1
  H  H92  1  1.235600  0.954300  0.056500  1
  H  H93  1  1.130300  1.026300  0.018500  1
  H  H94  1  1.145500  0.958700  -0.058400  1
  H  H95  1  1.035200  0.832900  -0.030400  1
  H  H96  1  0.915400  0.822600  0.046800  1
  H  H97  1  1.098800  0.829300  0.089300  1
  H  H98  1  1.282700  0.978600  0.281700  1
  H  H99  1  1.287800  0.902700  0.217700  1
  H  H100  1  1.319200  0.899700  0.339100  1
  H  H101  1  1.103300  0.904300  0.434200  1
  H  H102  1  0.932500  0.929600  0.379400  1
  H  H103  1  1.073300  0.989000  0.394100  1
  H  H104  1  0.585400  0.862900  0.198300  1
  H  H105  1  0.762800  0.839000  0.239300  1
  H  H106  1  0.697400  0.840900  0.119800  1
  H  H107  1  0.637400  0.966900  0.032300  1
  H  H108  1  0.668400  1.043000  0.097100  1
  H  H109  1  0.527300  0.988500  0.112100  1
  H  H110  1  0.771600  1.168500  0.273400  1
  H  H111  1  1.249100  1.151200  0.121000  1
  H  H112  1  0.869600  1.425600  0.342900  1
  H  H113  1  1.346100  1.410900  0.187700  1
  H  H114  1  0.529400  1.176200  0.346500  1
  H  H115  1  0.635800  1.432300  0.424800  1
  H  H116  1  1.596700  1.391100  0.097900  1
  H  H117  1  1.722700  1.292900  0.016300  1
  H  H118  1  0.272500  1.197200  0.430000  1
  H  H119  1  0.160100  1.293300  0.523200  1
  H  H120  1  1.065900  1.720100  0.196300  1
  H  H121  1  1.230400  1.636800  0.468200  1
  H  H122  1  1.399500  1.610300  0.218100  1
  H  H123  1  1.091400  1.591000  0.071800  1
  H  H124  1  1.208300  1.661500  0.085500  1
  H  H125  1  1.031800  1.672000  0.028300  1
  H  H126  1  0.815300  1.674500  0.120300  1
  H  H127  1  0.842000  1.668800  0.241500  1
  H  H128  1  0.855700  1.594900  0.175000  1
  H  H129  1  1.007200  1.617400  0.527700  1
  H  H130  1  1.045700  1.546800  0.461700  1
  H  H131  1  0.912700  1.605600  0.414900  1
  H  H132  1  1.008500  1.742800  0.373200  1
  H  H133  1  1.190400  1.757800  0.413200  1
  H  H134  1  1.076100  1.741700  0.492400  1
  H  H135  1  1.602200  1.589300  0.337500  1
  H  H136  1  1.465100  1.531100  0.347700  1
  H  H137  1  1.499400  1.600800  0.424500  1
  H  H138  1  1.418100  1.736900  0.347200  1
  H  H139  1  1.372600  1.736800  0.226000  1
  H  H140  1  1.546700  1.715900  0.279600  1
  H  H141  1  1.095700  0.447200  1.008200  1
  H  H142  1  0.936800  0.357500  0.730400  1
  H  H143  1  1.271300  0.470700  0.752900  1
  H  H144  1  0.764400  0.454300  0.943500  1
  H  H145  1  0.869700  0.526300  0.981500  1
  H  H146  1  0.854500  0.458700  1.058400  1
  H  H147  1  0.964800  0.332900  1.030400  1
  H  H148  1  1.084600  0.322600  0.953200  1
  H  H149  1  0.901200  0.329300  0.910700  1
  H  H150  1  0.717300  0.478600  0.718300  1
  H  H151  1  0.712200  0.402700  0.782300  1
  H  H152  1  0.680800  0.399700  0.660900  1
  H  H153  1  0.896700  0.404300  0.565800  1
  H  H154  1  1.067500  0.429600  0.620600  1
  H  H155  1  0.926700  0.489000  0.605900  1
  H  H156  1  1.414600  0.362900  0.801700  1
  H  H157  1  1.237200  0.339000  0.760700  1
  H  H158  1  1.302600  0.340900  0.880200  1
  H  H159  1  1.362600  0.466900  0.967700  1
  H  H160  1  1.331600  0.543000  0.902900  1
  H  H161  1  1.472700  0.488500  0.887900  1
  H  H162  1  1.228400  0.668500  0.726600  1
  H  H163  1  0.750900  0.651200  0.879000  1
  H  H164  1  1.130400  0.925600  0.657100  1
  H  H165  1  0.653900  0.910900  0.812300  1
  H  H166  1  1.470600  0.676200  0.653500  1
  H  H167  1  1.364200  0.932300  0.575200  1
  H  H168  1  0.403300  0.891100  0.902100  1
  H  H169  1  0.277300  0.792900  0.983700  1
  H  H170  1  1.727500  0.697200  0.570000  1
  H  H171  1  1.839900  0.793300  0.476800  1
  H  H172  1  0.934100  1.220100  0.803700  1
  H  H173  1  0.769600  1.136800  0.531800  1
  H  H174  1  0.600500  1.110300  0.781900  1
  H  H175  1  0.908600  1.091000  0.928200  1
  H  H176  1  0.791700  1.161500  0.914500  1
  H  H177  1  0.968200  1.172000  0.971700  1
  H  H178  1  1.184700  1.174500  0.879700  1
  H  H179  1  1.158000  1.168800  0.758500  1
  H  H180  1  1.144300  1.094900  0.825000  1
  H  H181  1  0.992800  1.117400  0.472300  1
  H  H182  1  0.954300  1.046800  0.538300  1
  H  H183  1  1.087300  1.105600  0.585100  1
  H  H184  1  0.991500  1.242800  0.626800  1
  H  H185  1  0.809600  1.257800  0.586800  1
  H  H186  1  0.923900  1.241700  0.507600  1
  H  H187  1  0.397800  1.089300  0.662500  1
  H  H188  1  0.534900  1.031100  0.652300  1
  H  H189  1  0.500600  1.100800  0.575500  1
  H  H190  1  0.581900  1.236900  0.652800  1
  H  H191  1  0.627400  1.236800  0.774000  1
  H  H192  1  0.453300  1.215900  0.720400  1
  S  S193  1  1.530600  1.199320  0.040100  1
  S  S194  1  0.353300  1.385290  0.502600  1
  S  S195  1  0.469400  0.699320  0.959900  1
  S  S196  1  1.646700  0.885290  0.497400  1
  Si  Si197  1  0.954300  0.962200  0.170790  1.0
  Si  Si198  1  1.175790  1.615250  0.293660  1
  Si  Si199  1  1.045700  0.462200  0.829210  1.0
  Si  Si200  1  0.824210  1.115250  0.706340  1
