# generated using pymatgen
data_SiH20C19Cl
_symmetry_space_group_name_H-M   'P 1'
_cell_length_a   11.09900000
_cell_length_b   12.59900000
_cell_length_c   12.61400000
_cell_angle_alpha   74.57400000
_cell_angle_beta   82.86700000
_cell_angle_gamma   84.52800000
_symmetry_Int_Tables_number   1
_chemical_formula_structural   SiH20C19Cl
_chemical_formula_sum   'Si4 H80 C76 Cl4'
_cell_volume   1683.60472179
_cell_formula_units_Z   4
loop_
 _symmetry_equiv_pos_site_id
 _symmetry_equiv_pos_as_xyz
  1  'x, y, z'
loop_
 _atom_site_type_symbol
 _atom_site_label
 _atom_site_symmetry_multiplicity
 _atom_site_fract_x
 _atom_site_fract_y
 _atom_site_fract_z
 _atom_site_occupancy
  C  C1  1  0.184600  0.368000  0.484500  1
  C  C2  1  0.016100  0.359000  0.319100  1
  C  C3  1  -0.076900  0.320500  0.563300  1
  C  C4  1  0.104900  0.149200  0.488800  1
  C  C5  1  0.278900  0.405300  0.492100  1
  C  C6  1  0.173100  0.108700  0.593200  1
  C  C7  1  0.390700  0.452600  0.496600  1
  C  C8  1  0.210600  -0.014600  0.622200  1
  C  C9  1  0.454500  0.414100  0.590900  1
  C  C10  1  0.433700  0.537200  0.404700  1
  C  C11  1  0.286400  -0.051100  0.718200  1
  C  C12  1  0.414600  0.327800  0.682200  1
  C  C13  1  0.566300  0.462800  0.595300  1
  C  C14  1  0.545500  0.585900  0.409100  1
  C  C15  1  0.372200  0.573500  0.309500  1
  C  C16  1  0.477000  0.290500  0.775200  1
  C  C17  1  0.609300  0.547400  0.503400  1
  C  C18  1  0.627800  0.426500  0.690500  1
  C  C19  1  0.585400  0.672200  0.317800  1
  C  C20  1  0.414400  0.656900  0.219600  1
  C  C21  1  0.585600  0.343100  0.780400  1
  C  C22  1  0.437400  0.203100  0.868000  1
  C  C23  1  0.721100  0.594700  0.507900  1
  C  C24  1  0.523000  0.709500  0.224800  1
  C  C25  1  0.354400  0.691500  0.120400  1
  C  C26  1  0.645600  0.308500  0.879600  1
  C  C27  1  0.498000  0.173100  0.959600  1
  C  C28  1  0.815400  0.632000  0.515500  1
  C  C29  1  0.562600  0.796900  0.132000  1
  C  C30  1  0.397700  0.772900  0.034400  1
  C  C31  1  0.602300  0.227100  0.965600  1
  C  C32  1  0.502000  0.826900  0.040400  1
  C  C33  1  0.983900  0.641000  0.680900  1
  C  C34  1  1.076900  0.679500  0.436700  1
  C  C35  1  0.895100  0.850800  0.511200  1
  C  C36  1  0.826900  0.891300  0.406800  1
  C  C37  1  0.789400  1.014600  0.377800  1
  C  C38  1  0.713600  1.051100  0.281800  1
  C  C39  1  0.810200  0.647700  -0.000600  1
  C  C40  1  0.942400  0.717900  0.160600  1
  C  C41  1  1.081800  0.676100  -0.048400  1
  C  C42  1  0.893500  0.875300  -0.061400  1
  C  C43  1  0.719600  0.602900  -0.002400  1
  C  C44  1  0.891400  0.898000  -0.186900  1
  C  C45  1  0.609700  0.550800  -0.002300  1
  C  C46  1  0.863400  1.019200  -0.246100  1
  C  C47  1  0.541800  0.583800  -0.094800  1
  C  C48  1  0.570000  0.467500  0.093300  1
  C  C49  1  0.736600  1.063600  -0.220100  1
  C  C50  1  0.578900  0.667300  -0.189300  1
  C  C51  1  0.430000  0.532500  -0.093300  1
  C  C52  1  0.458200  0.416200  0.094800  1
  C  C53  1  0.635400  0.434400  0.186200  1
  C  C54  1  0.513200  0.699900  -0.280200  1
  C  C55  1  0.390300  0.449200  0.002300  1
  C  C56  1  0.364600  0.565600  -0.186200  1
  C  C57  1  0.421100  0.332700  0.189300  1
  C  C58  1  0.596900  0.353000  0.279500  1
  C  C59  1  0.403100  0.647000  -0.279500  1
  C  C60  1  0.549700  0.785100  -0.376800  1
  C  C61  1  0.280400  0.397100  0.002400  1
  C  C62  1  0.486800  0.300100  0.280200  1
  C  C63  1  0.661400  0.321100  0.375400  1
  C  C64  1  0.338600  0.678900  -0.375400  1
  C  C65  1  0.484900  0.813500  -0.464800  1
  C  C66  1  0.189800  0.352300  0.000600  1
  C  C67  1  0.450300  0.214900  0.376800  1
  C  C68  1  0.622200  0.240400  0.464700  1
  C  C69  1  0.377800  0.759600  -0.464700  1
  C  C70  1  0.515100  0.186500  0.464800  1
  C  C71  1  0.057600  0.282100  -0.160600  1
  C  C72  1  -0.081800  0.323900  0.048400  1
  C  C73  1  0.106500  0.124700  0.061400  1
  C  C74  1  0.108600  0.102000  0.186900  1
  C  C75  1  0.136600  -0.019200  0.246100  1
  C  C76  1  0.263400  -0.063600  0.220100  1
  Cl  Cl77  1  0.207600  -0.022400  0.842100  1
  Cl  Cl78  1  0.792400  1.022400  0.157900  1
  Cl  Cl79  1  0.626300  0.996900  -0.268800  1
  Cl  Cl80  1  0.373700  0.003100  0.268800  1
  H  H81  1  -0.017400  0.435300  0.310900  1
  H  H82  1  -0.044300  0.315300  0.302800  1
  H  H83  1  0.089700  0.358000  0.267700  1
  H  H84  1  -0.053700  0.292900  0.638800  1
  H  H85  1  -0.145000  0.280500  0.554600  1
  H  H86  1  -0.101300  0.399400  0.549300  1
  H  H87  1  0.032900  0.105700  0.497600  1
  H  H88  1  0.159000  0.137000  0.423900  1
  H  H89  1  0.247000  0.150300  0.582100  1
  H  H90  1  0.120400  0.125800  0.656600  1
  H  H91  1  0.136400  -0.056400  0.640100  1
  H  H92  1  0.257400  -0.033100  0.556600  1
  H  H93  1  0.363000  -0.012700  0.699100  1
  H  H94  1  0.307800  -0.131300  0.732000  1
  H  H95  1  0.342400  0.294100  0.679600  1
  H  H96  1  0.299900  0.540300  0.306300  1
  H  H97  1  0.700100  0.459700  0.693700  1
  H  H98  1  0.657600  0.705900  0.320400  1
  H  H99  1  0.368000  0.165600  0.865300  1
  H  H100  1  0.283700  0.657000  0.115000  1
  H  H101  1  0.716300  0.343000  0.885000  1
  H  H102  1  0.470200  0.115200  1.020500  1
  H  H103  1  0.632000  0.834400  0.134700  1
  H  H104  1  0.357500  0.794100  -0.031000  1
  H  H105  1  0.642500  0.205900  1.031000  1
  H  H106  1  0.529800  0.884800  -0.020500  1
  H  H107  1  1.017400  0.564700  0.689100  1
  H  H108  1  1.044300  0.684700  0.697200  1
  H  H109  1  0.910300  0.642000  0.732300  1
  H  H110  1  1.053700  0.707100  0.361200  1
  H  H111  1  1.145000  0.719500  0.445400  1
  H  H112  1  1.101300  0.600600  0.450700  1
  H  H113  1  0.967100  0.894300  0.502400  1
  H  H114  1  0.841000  0.863000  0.576100  1
  H  H115  1  0.753000  0.849700  0.417900  1
  H  H116  1  0.879600  0.874200  0.343400  1
  H  H117  1  0.863600  1.056400  0.359900  1
  H  H118  1  0.742600  1.033100  0.443400  1
  H  H119  1  0.637000  1.012700  0.300900  1
  H  H120  1  0.692200  1.131300  0.268000  1
  H  H121  1  0.864600  0.745800  0.192300  1
  H  H122  1  1.007700  0.761700  0.168200  1
  H  H123  1  0.959100  0.640500  0.199800  1
  H  H124  1  1.099800  0.599300  -0.008300  1
  H  H125  1  1.146600  0.721300  -0.042600  1
  H  H126  1  1.076600  0.680200  -0.126400  1
  H  H127  1  0.812100  0.897200  -0.029000  1
  H  H128  1  0.952300  0.922900  -0.047100  1
  H  H129  1  0.971500  0.873000  -0.219100  1
  H  H130  1  0.829500  0.853300  -0.201300  1
  H  H131  1  0.920900  1.064500  -0.226300  1
  H  H132  1  0.878300  1.027700  -0.326800  1
  H  H133  1  0.729500  1.143900  -0.254900  1
  H  H134  1  0.719300  1.052400  -0.139100  1
  H  H135  1  0.651300  0.702300  -0.190500  1
  H  H136  1  0.708300  0.468600  0.185300  1
  H  H137  1  0.291700  0.531400  -0.185300  1
  H  H138  1  0.348700  0.297700  0.190500  1
  H  H139  1  0.620900  0.822000  -0.378700  1
  H  H140  1  0.732600  0.356700  0.376800  1
  H  H141  1  0.267400  0.643300  -0.376800  1
  H  H142  1  0.511000  0.870100  -0.527600  1
  H  H143  1  0.379100  0.178000  0.378700  1
  H  H144  1  0.666667  0.219700  0.527600  1
  H  H145  1  0.333333  0.780300  -0.527600  1
  H  H146  1  0.489000  0.129900  0.527600  1
  H  H147  1  0.135400  0.254200  -0.192300  1
  H  H148  1  -0.007700  0.238300  -0.168200  1
  H  H149  1  0.040900  0.359500  -0.199800  1
  H  H150  1  -0.099800  0.400700  0.008300  1
  H  H151  1  -0.146600  0.278700  0.042600  1
  H  H152  1  -0.076600  0.319800  0.126400  1
  H  H153  1  0.187900  0.102800  0.029000  1
  H  H154  1  0.047700  0.077100  0.047100  1
  H  H155  1  0.028500  0.127000  0.219100  1
  H  H156  1  0.170500  0.146700  0.201300  1
  H  H157  1  0.079100  -0.064500  0.226300  1
  H  H158  1  0.121700  -0.027700  0.326800  1
  H  H159  1  0.270500  -0.143900  0.254900  1
  H  H160  1  0.280700  -0.052400  0.139100  1
  Si  Si161  1  0.054500  0.299300  0.463400  1.0
  Si  Si162  1  0.945500  0.700700  0.536600  1
  Si  Si163  1  0.934700  0.728300  0.012300  1.0
  Si  Si164  1  0.065300  0.271700  -0.012300  1
