# generated using pymatgen
data_SiH24C21SF3
_symmetry_space_group_name_H-M   'P 1'
_cell_length_a   8.91240000
_cell_length_b   10.43340000
_cell_length_c   11.56400000
_cell_angle_alpha   109.77170000
_cell_angle_beta   94.75990000
_cell_angle_gamma   93.02080000
_symmetry_Int_Tables_number   1
_chemical_formula_structural   SiH24C21SF3
_chemical_formula_sum   'Si2 H48 C42 S2 F6'
_cell_volume   1004.66962201
_cell_formula_units_Z   2
loop_
 _symmetry_equiv_pos_site_id
 _symmetry_equiv_pos_as_xyz
  1  'x, y, z'
loop_
 _atom_site_type_symbol
 _atom_site_label
 _atom_site_symmetry_multiplicity
 _atom_site_fract_x
 _atom_site_fract_y
 _atom_site_fract_z
 _atom_site_occupancy
  C  C1  1  0.391800  0.770400  0.330300  1
  C  C2  1  0.299900  0.771200  0.077500  1
  C  C3  1  0.504100  1.021800  0.278800  1
  C  C4  1  0.169900  0.966400  0.303800  1
  C  C5  1  0.422800  0.691000  0.382200  1
  C  C6  1  0.422200  0.673000  0.028200  1
  C  C7  1  0.262800  0.852400  -0.008100  1
  C  C8  1  0.649600  0.967400  0.228400  1
  C  C9  1  0.459500  1.143100  0.239100  1
  C  C10  1  0.035300  0.858300  0.282400  1
  C  C11  1  0.200400  1.057600  0.440500  1
  C  C12  1  0.460500  0.595000  0.441900  1
  C  C13  1  0.363000  0.565800  0.521100  1
  C  C14  1  0.597300  0.530100  0.419000  1
  C  C15  1  0.228000  0.632200  0.545600  1
  C  C16  1  0.402700  0.469900  0.581000  1
  C  C17  1  0.637000  0.434200  0.478900  1
  C  C18  1  0.692700  0.555200  0.335300  1
  C  C19  1  0.140300  0.607500  0.628900  1
  C  C20  1  0.539500  0.405000  0.558100  1
  C  C21  1  0.307300  0.444800  0.664700  1
  C  C22  1  0.772000  0.367800  0.454400  1
  C  C23  1  0.819800  0.487200  0.310500  1
  C  C24  1  0.180200  0.512800  0.689500  1
  C  C25  1  0.577200  0.309000  0.617800  1
  C  C26  1  0.859700  0.392500  0.371100  1
  C  C27  1  0.927000  0.485400  0.223000  1
  C  C28  1  0.073000  0.514600  0.777000  1
  C  C29  1  -0.037600  0.598200  0.778800  1
  C  C30  1  0.608200  0.229600  0.669700  1
  C  C31  1  1.037600  0.401800  0.221200  1
  C  C32  1  -0.155400  0.628700  0.865900  1
  C  C33  1  1.155400  0.371300  0.134100  1
  C  C34  1  0.700100  0.228800  0.922500  1
  C  C35  1  0.495900  -0.021800  0.721200  1
  C  C36  1  0.830100  0.033600  0.696200  1
  C  C37  1  0.577800  0.327000  0.971800  1
  C  C38  1  0.737200  0.147600  1.008100  1
  C  C39  1  0.350400  0.032600  0.771600  1
  C  C40  1  0.540500  -0.143100  0.760900  1
  C  C41  1  0.964700  0.141700  0.717600  1
  C  C42  1  0.799600  -0.057600  0.559500  1
  F  F43  1  -0.144500  0.760500  0.938300  1
  F  F44  1  -0.295900  0.602000  0.811100  1
  F  F45  1  -0.144400  0.554800  0.941100  1
  F  F46  1  1.144500  0.239500  0.061700  1
  F  F47  1  1.295900  0.398000  0.188900  1
  F  F48  1  1.144400  0.445200  0.058900  1
  H  H49  1  0.206000  0.712200  0.073200  1
  H  H50  1  0.526300  1.059100  0.370800  1
  H  H51  1  0.141300  1.026700  0.255600  1
  H  H52  1  0.386200  0.610000  -0.055000  1
  H  H53  1  0.442800  0.620800  0.083200  1
  H  H54  1  0.515000  0.725900  0.025300  1
  H  H55  1  0.351600  0.912700  -0.006500  1
  H  H56  1  0.178400  0.907400  0.020200  1
  H  H57  1  0.234600  0.789000  -0.092600  1
  H  H58  1  0.636500  0.937400  0.137900  1
  H  H59  1  0.673500  0.889900  0.254300  1
  H  H60  1  0.732400  1.039900  0.260500  1
  H  H61  1  0.546500  1.211100  0.258100  1
  H  H62  1  0.375900  1.185000  0.283900  1
  H  H63  1  0.428000  1.110200  0.150000  1
  H  H64  1  0.062500  0.793300  0.323600  1
  H  H65  1  0.010800  0.809300  0.193600  1
  H  H66  1  -0.052700  0.903800  0.316600  1
  H  H67  1  0.108300  1.100400  0.468200  1
  H  H68  1  0.281500  1.128800  0.450100  1
  H  H69  1  0.230800  1.001900  0.490200  1
  H  H70  1  0.198900  0.693400  0.504600  1
  H  H71  1  0.668200  0.619400  0.296300  1
  H  H72  1  0.331800  0.380600  0.703700  1
  H  H73  1  0.801100  0.306600  0.495400  1
  H  H74  1  0.920100  0.538900  0.171000  1
  H  H75  1  0.079900  0.461100  0.829000  1
  H  H76  1  0.794000  0.287800  0.926800  1
  H  H77  1  0.473700  -0.059100  0.629200  1
  H  H78  1  0.858700  -0.026700  0.744400  1
  H  H79  1  0.613800  0.390000  1.055000  1
  H  H80  1  0.557200  0.379200  0.916800  1
  H  H81  1  0.485000  0.274100  0.974700  1
  H  H82  1  0.648400  0.087300  1.006500  1
  H  H83  1  0.821600  0.092600  0.979800  1
  H  H84  1  0.765400  0.211000  1.092600  1
  H  H85  1  0.363500  0.062600  0.862100  1
  H  H86  1  0.326500  0.110100  0.745700  1
  H  H87  1  0.267600  -0.039900  0.739500  1
  H  H88  1  0.453500  -0.211100  0.741900  1
  H  H89  1  0.624100  -0.185000  0.716100  1
  H  H90  1  0.572000  -0.110200  0.850000  1
  H  H91  1  0.937500  0.206700  0.676400  1
  H  H92  1  0.989200  0.190700  0.806400  1
  H  H93  1  1.052700  0.096200  0.683400  1
  H  H94  1  0.891700  -0.100400  0.531800  1
  H  H95  1  0.718500  -0.128800  0.549900  1
  H  H96  1  0.769200  -0.001900  0.509800  1
  S  S97  1  -0.024680  0.686870  0.674950  1
  S  S98  1  1.024680  0.313130  0.325050  1
  Si  Si99  1  0.343330  0.884580  0.243460  1.0
  Si  Si100  1  0.656670  0.115420  0.756540  1
