# generated using pymatgen
data_SiH21C19
_symmetry_space_group_name_H-M   'P 1'
_cell_length_a   30.51100000
_cell_length_b   7.38700000
_cell_length_c   32.10600000
_cell_angle_alpha   90.00000000
_cell_angle_beta   118.18600000
_cell_angle_gamma   90.00000000
_symmetry_Int_Tables_number   1
_chemical_formula_structural   SiH21C19
_chemical_formula_sum   'Si16 H336 C304'
_cell_volume   6378.12603556
_cell_formula_units_Z   16
loop_
 _symmetry_equiv_pos_site_id
 _symmetry_equiv_pos_as_xyz
  1  'x, y, z'
loop_
 _atom_site_type_symbol
 _atom_site_label
 _atom_site_symmetry_multiplicity
 _atom_site_fract_x
 _atom_site_fract_y
 _atom_site_fract_z
 _atom_site_occupancy
  C  C1  1  0.353080  0.505700  0.191960  1
  C  C2  1  0.365750  0.419800  0.288560  1
  C  C3  1  0.398280  0.786200  0.267240  1
  C  C4  1  0.287470  0.695000  0.224810  1
  C  C5  1  0.359120  0.456000  0.159190  1
  C  C6  1  0.336490  0.246500  0.270370  1
  C  C7  1  0.450630  0.730800  0.279580  1
  C  C8  1  0.267450  0.825100  0.182310  1
  C  C9  1  0.367880  0.402100  0.120630  1
  C  C10  1  0.329480  0.426100  0.073090  1
  C  C11  1  0.414280  0.331900  0.130210  1
  C  C12  1  0.283140  0.500200  0.062340  1
  C  C13  1  0.339070  0.373600  0.034780  1
  C  C14  1  0.423590  0.277800  0.091950  1
  C  C15  1  0.453260  0.308800  0.177410  1
  C  C16  1  0.245650  0.524000  0.015810  1
  C  C17  1  0.301640  0.396900  -0.011520  1
  C  C18  1  0.386150  0.298900  0.045060  1
  C  C19  1  0.471310  0.203800  0.103370  1
  C  C20  1  0.497720  0.236700  0.186210  1
  C  C21  1  0.198860  0.599400  0.004460  1
  C  C22  1  0.255200  0.470100  -0.022280  1
  C  C23  1  0.394590  0.241500  0.006780  1
  C  C24  1  0.506860  0.183200  0.148640  1
  C  C25  1  0.162120  0.621200  -0.041800  1
  C  C26  1  0.217430  0.491800  -0.069210  1
  C  C27  1  0.399250  0.193200  -0.026960  1
  C  C28  1  0.114430  0.698900  -0.053740  1
  C  C29  1  0.171760  0.564700  -0.079700  1
  C  C30  1  0.079440  0.718000  -0.099200  1
  C  C31  1  0.132920  0.588100  -0.127260  1
  C  C32  1  0.341020  0.202700  -0.131650  1
  C  C33  1  0.414700  -0.117700  -0.079800  1
  C  C34  1  0.459400  0.185100  -0.078900  1
  C  C35  1  0.088610  0.661900  -0.136660  1
  C  C36  1  0.294350  0.161400  -0.131100  1
  C  C37  1  0.377000  -0.242500  -0.076200  1
  C  C38  1  0.468200  0.390600  -0.073000  1
  C  C39  1  0.646920  0.505700  0.308040  1
  C  C40  1  0.634250  0.419800  0.211440  1
  C  C41  1  0.601720  0.786200  0.232760  1
  C  C42  1  0.712530  0.695000  0.275190  1
  C  C43  1  0.640880  0.456000  0.340810  1
  C  C44  1  0.663510  0.246500  0.229630  1
  C  C45  1  0.549370  0.730800  0.220420  1
  C  C46  1  0.732550  0.825100  0.317690  1
  C  C47  1  0.632120  0.402100  0.379370  1
  C  C48  1  0.670520  0.426100  0.426910  1
  C  C49  1  0.585720  0.331900  0.369790  1
  C  C50  1  0.716860  0.500200  0.437660  1
  C  C51  1  0.660930  0.373600  0.465220  1
  C  C52  1  0.576410  0.277800  0.408050  1
  C  C53  1  0.546740  0.308800  0.322590  1
  C  C54  1  0.754350  0.524000  0.484190  1
  C  C55  1  0.698360  0.396900  0.511520  1
  C  C56  1  0.613850  0.298900  0.454940  1
  C  C57  1  0.528690  0.203800  0.396630  1
  C  C58  1  0.502280  0.236700  0.313790  1
  C  C59  1  0.801140  0.599400  0.495540  1
  C  C60  1  0.744800  0.470100  0.522280  1
  C  C61  1  0.605410  0.241500  0.493220  1
  C  C62  1  0.493140  0.183200  0.351360  1
  C  C63  1  0.837880  0.621200  0.541800  1
  C  C64  1  0.782570  0.491800  0.569210  1
  C  C65  1  0.600750  0.193200  0.526960  1
  C  C66  1  0.885570  0.698900  0.553740  1
  C  C67  1  0.828240  0.564700  0.579700  1
  C  C68  1  0.920560  0.718000  0.599200  1
  C  C69  1  0.867080  0.588100  0.627260  1
  C  C70  1  0.658980  0.202700  0.631650  1
  C  C71  1  0.585300  -0.117700  0.579800  1
  C  C72  1  0.540600  0.185100  0.578900  1
  C  C73  1  0.911390  0.661900  0.636660  1
  C  C74  1  0.705650  0.161400  0.631100  1
  C  C75  1  0.623000  -0.242500  0.576200  1
  C  C76  1  0.531800  0.390600  0.573000  1
  C  C77  1  0.853080  0.005700  0.191960  1
  C  C78  1  0.865750  -0.080200  0.288560  1
  C  C79  1  0.898280  0.286200  0.267240  1
  C  C80  1  0.787470  0.195000  0.224810  1
  C  C81  1  0.859120  -0.044000  0.159190  1
  C  C82  1  0.836490  -0.253500  0.270370  1
  C  C83  1  0.950630  0.230800  0.279580  1
  C  C84  1  0.767450  0.325100  0.182310  1
  C  C85  1  0.867880  -0.097900  0.120630  1
  C  C86  1  0.829480  -0.073900  0.073090  1
  C  C87  1  0.914280  -0.168100  0.130210  1
  C  C88  1  0.783140  0.000200  0.062340  1
  C  C89  1  0.839070  -0.126400  0.034780  1
  C  C90  1  0.923590  -0.222200  0.091950  1
  C  C91  1  0.953260  -0.191200  0.177410  1
  C  C92  1  0.745650  0.024000  0.015810  1
  C  C93  1  0.801640  -0.103100  -0.011520  1
  C  C94  1  0.886150  -0.201100  0.045060  1
  C  C95  1  0.971310  -0.296200  0.103370  1
  C  C96  1  0.997720  -0.263300  0.186210  1
  C  C97  1  0.698860  0.099400  0.004460  1
  C  C98  1  0.755200  -0.029900  -0.022280  1
  C  C99  1  0.894590  -0.258500  0.006780  1
  C  C100  1  1.006860  -0.316800  0.148640  1
  C  C101  1  0.662120  0.121200  -0.041800  1
  C  C102  1  0.717430  -0.008200  -0.069210  1
  C  C103  1  0.899250  -0.306800  -0.026960  1
  C  C104  1  0.614430  0.198900  -0.053740  1
  C  C105  1  0.671760  0.064700  -0.079700  1
  C  C106  1  0.579440  0.218000  -0.099200  1
  C  C107  1  0.632920  0.088100  -0.127260  1
  C  C108  1  0.841020  -0.297300  -0.131650  1
  C  C109  1  0.914700  -0.617700  -0.079800  1
  C  C110  1  0.959400  -0.314900  -0.078900  1
  C  C111  1  0.588610  0.161900  -0.136660  1
  C  C112  1  0.794350  -0.338600  -0.131100  1
  C  C113  1  0.877000  -0.742500  -0.076200  1
  C  C114  1  0.968200  -0.109400  -0.073000  1
  C  C115  1  0.146920  0.005700  0.308040  1
  C  C116  1  0.134250  -0.080200  0.211440  1
  C  C117  1  0.101720  0.286200  0.232760  1
  C  C118  1  0.212530  0.195000  0.275190  1
  C  C119  1  0.140880  -0.044000  0.340810  1
  C  C120  1  0.163510  -0.253500  0.229630  1
  C  C121  1  0.049370  0.230800  0.220420  1
  C  C122  1  0.232550  0.325100  0.317690  1
  C  C123  1  0.132120  -0.097900  0.379370  1
  C  C124  1  0.170520  -0.073900  0.426910  1
  C  C125  1  0.085720  -0.168100  0.369790  1
  C  C126  1  0.216860  0.000200  0.437660  1
  C  C127  1  0.160930  -0.126400  0.465220  1
  C  C128  1  0.076410  -0.222200  0.408050  1
  C  C129  1  0.046740  -0.191200  0.322590  1
  C  C130  1  0.254350  0.024000  0.484190  1
  C  C131  1  0.198360  -0.103100  0.511520  1
  C  C132  1  0.113850  -0.201100  0.454940  1
  C  C133  1  0.028690  -0.296200  0.396630  1
  C  C134  1  0.002280  -0.263300  0.313790  1
  C  C135  1  0.301140  0.099400  0.495540  1
  C  C136  1  0.244800  -0.029900  0.522280  1
  C  C137  1  0.105410  -0.258500  0.493220  1
  C  C138  1  -0.006860  -0.316800  0.351360  1
  C  C139  1  0.337880  0.121200  0.541800  1
  C  C140  1  0.282570  -0.008200  0.569210  1
  C  C141  1  0.100750  -0.306800  0.526960  1
  C  C142  1  0.385570  0.198900  0.553740  1
  C  C143  1  0.328240  0.064700  0.579700  1
  C  C144  1  0.420560  0.218000  0.599200  1
  C  C145  1  0.367080  0.088100  0.627260  1
  C  C146  1  0.158980  -0.297300  0.631650  1
  C  C147  1  0.085300  -0.617700  0.579800  1
  C  C148  1  0.040600  -0.314900  0.578900  1
  C  C149  1  0.411390  0.161900  0.636660  1
  C  C150  1  0.205650  -0.338600  0.631100  1
  C  C151  1  0.123000  -0.742500  0.576200  1
  C  C152  1  0.031800  -0.109400  0.573000  1
  C  C153  1  0.646920  0.494300  -0.191960  1
  C  C154  1  0.634250  0.580200  -0.288560  1
  C  C155  1  0.601720  0.213800  -0.267240  1
  C  C156  1  0.712530  0.305000  -0.224810  1
  C  C157  1  0.640880  0.544000  -0.159190  1
  C  C158  1  0.663510  0.753500  -0.270370  1
  C  C159  1  0.549370  0.269200  -0.279580  1
  C  C160  1  0.732550  0.174900  -0.182310  1
  C  C161  1  0.632120  0.597900  -0.120630  1
  C  C162  1  0.670520  0.573900  -0.073090  1
  C  C163  1  0.585720  0.668100  -0.130210  1
  C  C164  1  0.716860  0.499800  -0.062340  1
  C  C165  1  0.660930  0.626400  -0.034780  1
  C  C166  1  0.576410  0.722200  -0.091950  1
  C  C167  1  0.546740  0.691200  -0.177410  1
  C  C168  1  0.754350  0.476000  -0.015810  1
  C  C169  1  0.698360  0.603100  0.011520  1
  C  C170  1  0.613850  0.701100  -0.045060  1
  C  C171  1  0.528690  0.796200  -0.103370  1
  C  C172  1  0.502280  0.763300  -0.186210  1
  C  C173  1  0.801140  0.400600  -0.004460  1
  C  C174  1  0.744800  0.529900  0.022280  1
  C  C175  1  0.605410  0.758500  -0.006780  1
  C  C176  1  0.493140  0.816800  -0.148640  1
  C  C177  1  0.837880  0.378800  0.041800  1
  C  C178  1  0.782570  0.508200  0.069210  1
  C  C179  1  0.600750  0.806800  0.026960  1
  C  C180  1  0.885570  0.301100  0.053740  1
  C  C181  1  0.828240  0.435300  0.079700  1
  C  C182  1  0.920560  0.282000  0.099200  1
  C  C183  1  0.867080  0.411900  0.127260  1
  C  C184  1  0.658980  0.797300  0.131650  1
  C  C185  1  0.585300  1.117700  0.079800  1
  C  C186  1  0.540600  0.814900  0.078900  1
  C  C187  1  0.911390  0.338100  0.136660  1
  C  C188  1  0.705650  0.838600  0.131100  1
  C  C189  1  0.623000  1.242500  0.076200  1
  C  C190  1  0.531800  0.609400  0.073000  1
  C  C191  1  0.353080  0.494300  -0.308040  1
  C  C192  1  0.365750  0.580200  -0.211440  1
  C  C193  1  0.398280  0.213800  -0.232760  1
  C  C194  1  0.287470  0.305000  -0.275190  1
  C  C195  1  0.359120  0.544000  -0.340810  1
  C  C196  1  0.336490  0.753500  -0.229630  1
  C  C197  1  0.450630  0.269200  -0.220420  1
  C  C198  1  0.267450  0.174900  -0.317690  1
  C  C199  1  0.367880  0.597900  -0.379370  1
  C  C200  1  0.329480  0.573900  -0.426910  1
  C  C201  1  0.414280  0.668100  -0.369790  1
  C  C202  1  0.283140  0.499800  -0.437660  1
  C  C203  1  0.339070  0.626400  -0.465220  1
  C  C204  1  0.423590  0.722200  -0.408050  1
  C  C205  1  0.453260  0.691200  -0.322590  1
  C  C206  1  0.245650  0.476000  -0.484190  1
  C  C207  1  0.301640  0.603100  -0.511520  1
  C  C208  1  0.386150  0.701100  -0.454940  1
  C  C209  1  0.471310  0.796200  -0.396630  1
  C  C210  1  0.497720  0.763300  -0.313790  1
  C  C211  1  0.198860  0.400600  -0.495540  1
  C  C212  1  0.255200  0.529900  -0.522280  1
  C  C213  1  0.394590  0.758500  -0.493220  1
  C  C214  1  0.506860  0.816800  -0.351360  1
  C  C215  1  0.162120  0.378800  -0.541800  1
  C  C216  1  0.217430  0.508200  -0.569210  1
  C  C217  1  0.399250  0.806800  -0.526960  1
  C  C218  1  0.114430  0.301100  -0.553740  1
  C  C219  1  0.171760  0.435300  -0.579700  1
  C  C220  1  0.079440  0.282000  -0.599200  1
  C  C221  1  0.132920  0.411900  -0.627260  1
  C  C222  1  0.341020  0.797300  -0.631650  1
  C  C223  1  0.414700  1.117700  -0.579800  1
  C  C224  1  0.459400  0.814900  -0.578900  1
  C  C225  1  0.088610  0.338100  -0.636660  1
  C  C226  1  0.294350  0.838600  -0.631100  1
  C  C227  1  0.377000  1.242500  -0.576200  1
  C  C228  1  0.468200  0.609400  -0.573000  1
  C  C229  1  0.146920  -0.005700  -0.191960  1
  C  C230  1  0.134250  0.080200  -0.288560  1
  C  C231  1  0.101720  -0.286200  -0.267240  1
  C  C232  1  0.212530  -0.195000  -0.224810  1
  C  C233  1  0.140880  0.044000  -0.159190  1
  C  C234  1  0.163510  0.253500  -0.270370  1
  C  C235  1  0.049370  -0.230800  -0.279580  1
  C  C236  1  0.232550  -0.325100  -0.182310  1
  C  C237  1  0.132120  0.097900  -0.120630  1
  C  C238  1  0.170520  0.073900  -0.073090  1
  C  C239  1  0.085720  0.168100  -0.130210  1
  C  C240  1  0.216860  -0.000200  -0.062340  1
  C  C241  1  0.160930  0.126400  -0.034780  1
  C  C242  1  0.076410  0.222200  -0.091950  1
  C  C243  1  0.046740  0.191200  -0.177410  1
  C  C244  1  0.254350  -0.024000  -0.015810  1
  C  C245  1  0.198360  0.103100  0.011520  1
  C  C246  1  0.113850  0.201100  -0.045060  1
  C  C247  1  0.028690  0.296200  -0.103370  1
  C  C248  1  0.002280  0.263300  -0.186210  1
  C  C249  1  0.301140  -0.099400  -0.004460  1
  C  C250  1  0.244800  0.029900  0.022280  1
  C  C251  1  0.105410  0.258500  -0.006780  1
  C  C252  1  -0.006860  0.316800  -0.148640  1
  C  C253  1  0.337880  -0.121200  0.041800  1
  C  C254  1  0.282570  0.008200  0.069210  1
  C  C255  1  0.100750  0.306800  0.026960  1
  C  C256  1  0.385570  -0.198900  0.053740  1
  C  C257  1  0.328240  -0.064700  0.079700  1
  C  C258  1  0.420560  -0.218000  0.099200  1
  C  C259  1  0.367080  -0.088100  0.127260  1
  C  C260  1  0.158980  0.297300  0.131650  1
  C  C261  1  0.085300  0.617700  0.079800  1
  C  C262  1  0.040600  0.314900  0.078900  1
  C  C263  1  0.411390  -0.161900  0.136660  1
  C  C264  1  0.205650  0.338600  0.131100  1
  C  C265  1  0.123000  0.742500  0.076200  1
  C  C266  1  0.031800  0.109400  0.073000  1
  C  C267  1  -0.146920  -0.005700  -0.308040  1
  C  C268  1  -0.134250  0.080200  -0.211440  1
  C  C269  1  -0.101720  -0.286200  -0.232760  1
  C  C270  1  -0.212530  -0.195000  -0.275190  1
  C  C271  1  -0.140880  0.044000  -0.340810  1
  C  C272  1  -0.163510  0.253500  -0.229630  1
  C  C273  1  -0.049370  -0.230800  -0.220420  1
  C  C274  1  -0.232550  -0.325100  -0.317690  1
  C  C275  1  -0.132120  0.097900  -0.379370  1
  C  C276  1  -0.170520  0.073900  -0.426910  1
  C  C277  1  -0.085720  0.168100  -0.369790  1
  C  C278  1  -0.216860  -0.000200  -0.437660  1
  C  C279  1  -0.160930  0.126400  -0.465220  1
  C  C280  1  -0.076410  0.222200  -0.408050  1
  C  C281  1  -0.046740  0.191200  -0.322590  1
  C  C282  1  -0.254350  -0.024000  -0.484190  1
  C  C283  1  -0.198360  0.103100  -0.511520  1
  C  C284  1  -0.113850  0.201100  -0.454940  1
  C  C285  1  -0.028690  0.296200  -0.396630  1
  C  C286  1  -0.002280  0.263300  -0.313790  1
  C  C287  1  -0.301140  -0.099400  -0.495540  1
  C  C288  1  -0.244800  0.029900  -0.522280  1
  C  C289  1  -0.105410  0.258500  -0.493220  1
  C  C290  1  0.006860  0.316800  -0.351360  1
  C  C291  1  -0.337880  -0.121200  -0.541800  1
  C  C292  1  -0.282570  0.008200  -0.569210  1
  C  C293  1  -0.100750  0.306800  -0.526960  1
  C  C294  1  -0.385570  -0.198900  -0.553740  1
  C  C295  1  -0.328240  -0.064700  -0.579700  1
  C  C296  1  -0.420560  -0.218000  -0.599200  1
  C  C297  1  -0.367080  -0.088100  -0.627260  1
  C  C298  1  -0.158980  0.297300  -0.631650  1
  C  C299  1  -0.085300  0.617700  -0.579800  1
  C  C300  1  -0.040600  0.314900  -0.578900  1
  C  C301  1  -0.411390  -0.161900  -0.636660  1
  C  C302  1  -0.205650  0.338600  -0.631100  1
  C  C303  1  -0.123000  0.742500  -0.576200  1
  C  C304  1  -0.031800  0.109400  -0.573000  1
  H  H305  1  0.401600  0.391200  0.302100  1
  H  H306  1  0.360100  0.467000  0.314500  1
  H  H307  1  0.388000  0.884900  0.243600  1
  H  H308  1  0.398600  0.836300  0.296000  1
  H  H309  1  0.264000  0.592300  0.216900  1
  H  H310  1  0.287900  0.759500  0.252000  1
  H  H311  1  0.300800  0.273100  0.256100  1
  H  H312  1  0.345700  0.161500  0.296600  1
  H  H313  1  0.344000  0.192500  0.246600  1
  H  H314  1  0.462100  0.637700  0.304200  1
  H  H315  1  0.472600  0.836400  0.291100  1
  H  H316  1  0.451100  0.682200  0.251400  1
  H  H317  1  0.289300  0.931000  0.190100  1
  H  H318  1  0.233800  0.864400  0.174800  1
  H  H319  1  0.266500  0.762900  0.154900  1
  H  H320  1  0.276900  0.535500  0.087500  1
  H  H321  1  0.448000  0.344600  0.203100  1
  H  H322  1  0.307900  0.361800  -0.036700  1
  H  H323  1  0.478100  0.168600  0.078600  1
  H  H324  1  0.523000  0.222000  0.217900  1
  H  H325  1  0.192400  0.636300  0.029400  1
  H  H326  1  0.538100  0.132500  0.155300  1
  H  H327  1  0.223600  0.455200  -0.094300  1
  H  H328  1  0.107500  0.737200  -0.029200  1
  H  H329  1  0.048200  0.769800  -0.106300  1
  H  H330  1  0.138400  0.550900  -0.152700  1
  H  H331  1  0.343300  0.335900  -0.133600  1
  H  H332  1  0.338800  0.151600  -0.161100  1
  H  H333  1  0.416700  -0.148300  -0.108900  1
  H  H334  1  0.447800  -0.141000  -0.052600  1
  H  H335  1  0.487000  0.122200  -0.052100  1
  H  H336  1  0.459400  0.145500  -0.108300  1
  H  H337  1  0.063500  0.676300  -0.168500  1
  H  H338  1  0.288300  0.030700  -0.134800  1
  H  H339  1  0.266900  0.225100  -0.157200  1
  H  H340  1  0.296600  0.200800  -0.101000  1
  H  H341  1  0.387800  -0.368500  -0.074600  1
  H  H342  1  0.344500  -0.226200  -0.104000  1
  H  H343  1  0.374600  -0.213200  -0.047600  1
  H  H344  1  0.499800  0.419900  -0.072400  1
  H  H345  1  0.469300  0.429600  -0.043400  1
  H  H346  1  0.441000  0.453200  -0.099600  1
  H  H347  1  0.598400  0.391200  0.197900  1
  H  H348  1  0.639900  0.467000  0.185500  1
  H  H349  1  0.612000  0.884900  0.256400  1
  H  H350  1  0.601400  0.836300  0.204000  1
  H  H351  1  0.736000  0.592300  0.283100  1
  H  H352  1  0.712100  0.759500  0.248000  1
  H  H353  1  0.699200  0.273100  0.243900  1
  H  H354  1  0.654300  0.161500  0.203400  1
  H  H355  1  0.656000  0.192500  0.253400  1
  H  H356  1  0.537900  0.637700  0.195800  1
  H  H357  1  0.527400  0.836400  0.208900  1
  H  H358  1  0.548900  0.682200  0.248600  1
  H  H359  1  0.710700  0.931000  0.309900  1
  H  H360  1  0.766200  0.864400  0.325200  1
  H  H361  1  0.733500  0.762900  0.345100  1
  H  H362  1  0.723100  0.535500  0.412500  1
  H  H363  1  0.552000  0.344600  0.296900  1
  H  H364  1  0.692100  0.361800  0.536700  1
  H  H365  1  0.521900  0.168600  0.421400  1
  H  H366  1  0.477000  0.222000  0.282100  1
  H  H367  1  0.807600  0.636300  0.470600  1
  H  H368  1  0.461900  0.132500  0.344700  1
  H  H369  1  0.776400  0.455200  0.594300  1
  H  H370  1  0.892500  0.737200  0.529200  1
  H  H371  1  0.951800  0.769800  0.606300  1
  H  H372  1  0.861600  0.550900  0.652700  1
  H  H373  1  0.656700  0.335900  0.633600  1
  H  H374  1  0.661200  0.151600  0.661100  1
  H  H375  1  0.583300  -0.148300  0.608900  1
  H  H376  1  0.552200  -0.141000  0.552600  1
  H  H377  1  0.513000  0.122200  0.552100  1
  H  H378  1  0.540600  0.145500  0.608300  1
  H  H379  1  0.936500  0.676300  0.668500  1
  H  H380  1  0.711700  0.030700  0.634800  1
  H  H381  1  0.733100  0.225100  0.657200  1
  H  H382  1  0.703400  0.200800  0.601000  1
  H  H383  1  0.612200  -0.368500  0.574600  1
  H  H384  1  0.655500  -0.226200  0.604000  1
  H  H385  1  0.625400  -0.213200  0.547600  1
  H  H386  1  0.500200  0.419900  0.572400  1
  H  H387  1  0.530700  0.429600  0.543400  1
  H  H388  1  0.559000  0.453200  0.599600  1
  H  H389  1  0.901600  -0.108800  0.302100  1
  H  H390  1  0.860100  -0.033000  0.314500  1
  H  H391  1  0.888000  0.384900  0.243600  1
  H  H392  1  0.898600  0.336300  0.296000  1
  H  H393  1  0.764000  0.092300  0.216900  1
  H  H394  1  0.787900  0.259500  0.252000  1
  H  H395  1  0.800800  -0.226900  0.256100  1
  H  H396  1  0.845700  -0.338500  0.296600  1
  H  H397  1  0.844000  -0.307500  0.246600  1
  H  H398  1  0.962100  0.137700  0.304200  1
  H  H399  1  0.972600  0.336400  0.291100  1
  H  H400  1  0.951100  0.182200  0.251400  1
  H  H401  1  0.789300  0.431000  0.190100  1
  H  H402  1  0.733800  0.364400  0.174800  1
  H  H403  1  0.766500  0.262900  0.154900  1
  H  H404  1  0.776900  0.035500  0.087500  1
  H  H405  1  0.948000  -0.155400  0.203100  1
  H  H406  1  0.807900  -0.138200  -0.036700  1
  H  H407  1  0.978100  -0.331400  0.078600  1
  H  H408  1  1.023000  -0.278000  0.217900  1
  H  H409  1  0.692400  0.136300  0.029400  1
  H  H410  1  1.038100  -0.367500  0.155300  1
  H  H411  1  0.723600  -0.044800  -0.094300  1
  H  H412  1  0.607500  0.237200  -0.029200  1
  H  H413  1  0.548200  0.269800  -0.106300  1
  H  H414  1  0.638400  0.050900  -0.152700  1
  H  H415  1  0.843300  -0.164100  -0.133600  1
  H  H416  1  0.838800  -0.348400  -0.161100  1
  H  H417  1  0.916700  -0.648300  -0.108900  1
  H  H418  1  0.947800  -0.641000  -0.052600  1
  H  H419  1  0.987000  -0.377800  -0.052100  1
  H  H420  1  0.959400  -0.354500  -0.108300  1
  H  H421  1  0.563500  0.176300  -0.168500  1
  H  H422  1  0.788300  -0.469300  -0.134800  1
  H  H423  1  0.766900  -0.274900  -0.157200  1
  H  H424  1  0.796600  -0.299200  -0.101000  1
  H  H425  1  0.887800  -0.868500  -0.074600  1
  H  H426  1  0.844500  -0.726200  -0.104000  1
  H  H427  1  0.874600  -0.713200  -0.047600  1
  H  H428  1  0.999800  -0.080100  -0.072400  1
  H  H429  1  0.969300  -0.070400  -0.043400  1
  H  H430  1  0.941000  -0.046800  -0.099600  1
  H  H431  1  0.098400  -0.108800  0.197900  1
  H  H432  1  0.139900  -0.033000  0.185500  1
  H  H433  1  0.112000  0.384900  0.256400  1
  H  H434  1  0.101400  0.336300  0.204000  1
  H  H435  1  0.236000  0.092300  0.283100  1
  H  H436  1  0.212100  0.259500  0.248000  1
  H  H437  1  0.199200  -0.226900  0.243900  1
  H  H438  1  0.154300  -0.338500  0.203400  1
  H  H439  1  0.156000  -0.307500  0.253400  1
  H  H440  1  0.037900  0.137700  0.195800  1
  H  H441  1  0.027400  0.336400  0.208900  1
  H  H442  1  0.048900  0.182200  0.248600  1
  H  H443  1  0.210700  0.431000  0.309900  1
  H  H444  1  0.266200  0.364400  0.325200  1
  H  H445  1  0.233500  0.262900  0.345100  1
  H  H446  1  0.223100  0.035500  0.412500  1
  H  H447  1  0.052000  -0.155400  0.296900  1
  H  H448  1  0.192100  -0.138200  0.536700  1
  H  H449  1  0.021900  -0.331400  0.421400  1
  H  H450  1  -0.023000  -0.278000  0.282100  1
  H  H451  1  0.307600  0.136300  0.470600  1
  H  H452  1  -0.038100  -0.367500  0.344700  1
  H  H453  1  0.276400  -0.044800  0.594300  1
  H  H454  1  0.392500  0.237200  0.529200  1
  H  H455  1  0.451800  0.269800  0.606300  1
  H  H456  1  0.361600  0.050900  0.652700  1
  H  H457  1  0.156700  -0.164100  0.633600  1
  H  H458  1  0.161200  -0.348400  0.661100  1
  H  H459  1  0.083300  -0.648300  0.608900  1
  H  H460  1  0.052200  -0.641000  0.552600  1
  H  H461  1  0.013000  -0.377800  0.552100  1
  H  H462  1  0.040600  -0.354500  0.608300  1
  H  H463  1  0.436500  0.176300  0.668500  1
  H  H464  1  0.211700  -0.469300  0.634800  1
  H  H465  1  0.233100  -0.274900  0.657200  1
  H  H466  1  0.203400  -0.299200  0.601000  1
  H  H467  1  0.112200  -0.868500  0.574600  1
  H  H468  1  0.155500  -0.726200  0.604000  1
  H  H469  1  0.125400  -0.713200  0.547600  1
  H  H470  1  0.000200  -0.080100  0.572400  1
  H  H471  1  0.030700  -0.070400  0.543400  1
  H  H472  1  0.059000  -0.046800  0.599600  1
  H  H473  1  0.598400  0.608800  -0.302100  1
  H  H474  1  0.639900  0.533000  -0.314500  1
  H  H475  1  0.612000  0.115100  -0.243600  1
  H  H476  1  0.601400  0.163700  -0.296000  1
  H  H477  1  0.736000  0.407700  -0.216900  1
  H  H478  1  0.712100  0.240500  -0.252000  1
  H  H479  1  0.699200  0.726900  -0.256100  1
  H  H480  1  0.654300  0.838500  -0.296600  1
  H  H481  1  0.656000  0.807500  -0.246600  1
  H  H482  1  0.537900  0.362300  -0.304200  1
  H  H483  1  0.527400  0.163600  -0.291100  1
  H  H484  1  0.548900  0.317800  -0.251400  1
  H  H485  1  0.710700  0.069000  -0.190100  1
  H  H486  1  0.766200  0.135600  -0.174800  1
  H  H487  1  0.733500  0.237100  -0.154900  1
  H  H488  1  0.723100  0.464500  -0.087500  1
  H  H489  1  0.552000  0.655400  -0.203100  1
  H  H490  1  0.692100  0.638200  0.036700  1
  H  H491  1  0.521900  0.831400  -0.078600  1
  H  H492  1  0.477000  0.778000  -0.217900  1
  H  H493  1  0.807600  0.363700  -0.029400  1
  H  H494  1  0.461900  0.867500  -0.155300  1
  H  H495  1  0.776400  0.544800  0.094300  1
  H  H496  1  0.892500  0.262800  0.029200  1
  H  H497  1  0.951800  0.230200  0.106300  1
  H  H498  1  0.861600  0.449100  0.152700  1
  H  H499  1  0.656700  0.664100  0.133600  1
  H  H500  1  0.661200  0.848400  0.161100  1
  H  H501  1  0.583300  1.148300  0.108900  1
  H  H502  1  0.552200  1.141000  0.052600  1
  H  H503  1  0.513000  0.877800  0.052100  1
  H  H504  1  0.540600  0.854500  0.108300  1
  H  H505  1  0.936500  0.323700  0.168500  1
  H  H506  1  0.711700  0.969300  0.134800  1
  H  H507  1  0.733100  0.774900  0.157200  1
  H  H508  1  0.703400  0.799200  0.101000  1
  H  H509  1  0.612200  1.368500  0.074600  1
  H  H510  1  0.655500  1.226200  0.104000  1
  H  H511  1  0.625400  1.213200  0.047600  1
  H  H512  1  0.500200  0.580100  0.072400  1
  H  H513  1  0.530700  0.570400  0.043400  1
  H  H514  1  0.559000  0.546800  0.099600  1
  H  H515  1  0.401600  0.608800  -0.197900  1
  H  H516  1  0.360100  0.533000  -0.185500  1
  H  H517  1  0.388000  0.115100  -0.256400  1
  H  H518  1  0.398600  0.163700  -0.204000  1
  H  H519  1  0.264000  0.407700  -0.283100  1
  H  H520  1  0.287900  0.240500  -0.248000  1
  H  H521  1  0.300800  0.726900  -0.243900  1
  H  H522  1  0.345700  0.838500  -0.203400  1
  H  H523  1  0.344000  0.807500  -0.253400  1
  H  H524  1  0.462100  0.362300  -0.195800  1
  H  H525  1  0.472600  0.163600  -0.208900  1
  H  H526  1  0.451100  0.317800  -0.248600  1
  H  H527  1  0.289300  0.069000  -0.309900  1
  H  H528  1  0.233800  0.135600  -0.325200  1
  H  H529  1  0.266500  0.237100  -0.345100  1
  H  H530  1  0.276900  0.464500  -0.412500  1
  H  H531  1  0.448000  0.655400  -0.296900  1
  H  H532  1  0.307900  0.638200  -0.536700  1
  H  H533  1  0.478100  0.831400  -0.421400  1
  H  H534  1  0.523000  0.778000  -0.282100  1
  H  H535  1  0.192400  0.363700  -0.470600  1
  H  H536  1  0.538100  0.867500  -0.344700  1
  H  H537  1  0.223600  0.544800  -0.594300  1
  H  H538  1  0.107500  0.262800  -0.529200  1
  H  H539  1  0.048200  0.230200  -0.606300  1
  H  H540  1  0.138400  0.449100  -0.652700  1
  H  H541  1  0.343300  0.664100  -0.633600  1
  H  H542  1  0.338800  0.848400  -0.661100  1
  H  H543  1  0.416700  1.148300  -0.608900  1
  H  H544  1  0.447800  1.141000  -0.552600  1
  H  H545  1  0.487000  0.877800  -0.552100  1
  H  H546  1  0.459400  0.854500  -0.608300  1
  H  H547  1  0.063500  0.323700  -0.668500  1
  H  H548  1  0.288300  0.969300  -0.634800  1
  H  H549  1  0.266900  0.774900  -0.657200  1
  H  H550  1  0.296600  0.799200  -0.601000  1
  H  H551  1  0.387800  1.368500  -0.574600  1
  H  H552  1  0.344500  1.226200  -0.604000  1
  H  H553  1  0.374600  1.213200  -0.547600  1
  H  H554  1  0.499800  0.580100  -0.572400  1
  H  H555  1  0.469300  0.570400  -0.543400  1
  H  H556  1  0.441000  0.546800  -0.599600  1
  H  H557  1  0.098400  0.108800  -0.302100  1
  H  H558  1  0.139900  0.033000  -0.314500  1
  H  H559  1  0.112000  -0.384900  -0.243600  1
  H  H560  1  0.101400  -0.336300  -0.296000  1
  H  H561  1  0.236000  -0.092300  -0.216900  1
  H  H562  1  0.212100  -0.259500  -0.252000  1
  H  H563  1  0.199200  0.226900  -0.256100  1
  H  H564  1  0.154300  0.338500  -0.296600  1
  H  H565  1  0.156000  0.307500  -0.246600  1
  H  H566  1  0.037900  -0.137700  -0.304200  1
  H  H567  1  0.027400  -0.336400  -0.291100  1
  H  H568  1  0.048900  -0.182200  -0.251400  1
  H  H569  1  0.210700  -0.431000  -0.190100  1
  H  H570  1  0.266200  -0.364400  -0.174800  1
  H  H571  1  0.233500  -0.262900  -0.154900  1
  H  H572  1  0.223100  -0.035500  -0.087500  1
  H  H573  1  0.052000  0.155400  -0.203100  1
  H  H574  1  0.192100  0.138200  0.036700  1
  H  H575  1  0.021900  0.331400  -0.078600  1
  H  H576  1  -0.023000  0.278000  -0.217900  1
  H  H577  1  0.307600  -0.136300  -0.029400  1
  H  H578  1  -0.038100  0.367500  -0.155300  1
  H  H579  1  0.276400  0.044800  0.094300  1
  H  H580  1  0.392500  -0.237200  0.029200  1
  H  H581  1  0.451800  -0.269800  0.106300  1
  H  H582  1  0.361600  -0.050900  0.152700  1
  H  H583  1  0.156700  0.164100  0.133600  1
  H  H584  1  0.161200  0.348400  0.161100  1
  H  H585  1  0.083300  0.648300  0.108900  1
  H  H586  1  0.052200  0.641000  0.052600  1
  H  H587  1  0.013000  0.377800  0.052100  1
  H  H588  1  0.040600  0.354500  0.108300  1
  H  H589  1  0.436500  -0.176300  0.168500  1
  H  H590  1  0.211700  0.469300  0.134800  1
  H  H591  1  0.233100  0.274900  0.157200  1
  H  H592  1  0.203400  0.299200  0.101000  1
  H  H593  1  0.112200  0.868500  0.074600  1
  H  H594  1  0.155500  0.726200  0.104000  1
  H  H595  1  0.125400  0.713200  0.047600  1
  H  H596  1  0.000200  0.080100  0.072400  1
  H  H597  1  0.030700  0.070400  0.043400  1
  H  H598  1  0.059000  0.046800  0.099600  1
  H  H599  1  -0.098400  0.108800  -0.197900  1
  H  H600  1  -0.139900  0.033000  -0.185500  1
  H  H601  1  -0.112000  -0.384900  -0.256400  1
  H  H602  1  -0.101400  -0.336300  -0.204000  1
  H  H603  1  -0.236000  -0.092300  -0.283100  1
  H  H604  1  -0.212100  -0.259500  -0.248000  1
  H  H605  1  -0.199200  0.226900  -0.243900  1
  H  H606  1  -0.154300  0.338500  -0.203400  1
  H  H607  1  -0.156000  0.307500  -0.253400  1
  H  H608  1  -0.037900  -0.137700  -0.195800  1
  H  H609  1  -0.027400  -0.336400  -0.208900  1
  H  H610  1  -0.048900  -0.182200  -0.248600  1
  H  H611  1  -0.210700  -0.431000  -0.309900  1
  H  H612  1  -0.266200  -0.364400  -0.325200  1
  H  H613  1  -0.233500  -0.262900  -0.345100  1
  H  H614  1  -0.223100  -0.035500  -0.412500  1
  H  H615  1  -0.052000  0.155400  -0.296900  1
  H  H616  1  -0.192100  0.138200  -0.536700  1
  H  H617  1  -0.021900  0.331400  -0.421400  1
  H  H618  1  0.023000  0.278000  -0.282100  1
  H  H619  1  -0.307600  -0.136300  -0.470600  1
  H  H620  1  0.038100  0.367500  -0.344700  1
  H  H621  1  -0.276400  0.044800  -0.594300  1
  H  H622  1  -0.392500  -0.237200  -0.529200  1
  H  H623  1  -0.451800  -0.269800  -0.606300  1
  H  H624  1  -0.361600  -0.050900  -0.652700  1
  H  H625  1  -0.156700  0.164100  -0.633600  1
  H  H626  1  -0.161200  0.348400  -0.661100  1
  H  H627  1  -0.083300  0.648300  -0.608900  1
  H  H628  1  -0.052200  0.641000  -0.552600  1
  H  H629  1  -0.013000  0.377800  -0.552100  1
  H  H630  1  -0.040600  0.354500  -0.608300  1
  H  H631  1  -0.436500  -0.176300  -0.668500  1
  H  H632  1  -0.211700  0.469300  -0.634800  1
  H  H633  1  -0.233100  0.274900  -0.657200  1
  H  H634  1  -0.203400  0.299200  -0.601000  1
  H  H635  1  -0.112200  0.868500  -0.574600  1
  H  H636  1  -0.155500  0.726200  -0.604000  1
  H  H637  1  -0.125400  0.713200  -0.547600  1
  H  H638  1  -0.000200  0.080100  -0.572400  1
  H  H639  1  -0.030700  0.070400  -0.543400  1
  H  H640  1  -0.059000  0.046800  -0.599600  1
  Si  Si641  1  0.350260  0.603100  0.243260  1.0
  Si  Si642  1  0.400840  0.121570  -0.081100  1
  Si  Si643  1  0.649740  0.603100  0.256740  1.0
  Si  Si644  1  0.599160  0.121570  0.581100  1
  Si  Si645  1  0.850260  0.103100  0.243260  1.0
  Si  Si646  1  0.900840  -0.378430  -0.081100  1
  Si  Si647  1  0.149740  0.103100  0.256740  1.0
  Si  Si648  1  0.099160  -0.378430  0.581100  1
  Si  Si649  1  0.649740  0.396900  -0.243260  1.0
  Si  Si650  1  0.599160  0.878430  0.081100  1
  Si  Si651  1  0.350260  0.396900  -0.256740  1.0
  Si  Si652  1  0.400840  0.878430  -0.581100  1
  Si  Si653  1  0.149740  -0.103100  -0.243260  1.0
  Si  Si654  1  0.099160  0.378430  0.081100  1
  Si  Si655  1  -0.149740  -0.103100  -0.256740  1.0
  Si  Si656  1  -0.099160  0.378430  -0.581100  1
