# generated using pymatgen
data_SiH37C29S
_symmetry_space_group_name_H-M   'P 1'
_cell_length_a   8.61940000
_cell_length_b   9.77750000
_cell_length_c   16.19570000
_cell_angle_alpha   99.81710000
_cell_angle_beta   91.94410000
_cell_angle_gamma   109.82810000
_symmetry_Int_Tables_number   1
_chemical_formula_structural   SiH37C29S
_chemical_formula_sum   'Si2 H74 C58 S2'
_cell_volume   1258.97665123
_cell_formula_units_Z   2
loop_
 _symmetry_equiv_pos_site_id
 _symmetry_equiv_pos_as_xyz
  1  'x, y, z'
loop_
 _atom_site_type_symbol
 _atom_site_label
 _atom_site_symmetry_multiplicity
 _atom_site_fract_x
 _atom_site_fract_y
 _atom_site_fract_z
 _atom_site_occupancy
  C  C1  1  0.614700  0.323200  0.692220  1
  C  C2  1  0.512600  0.267700  0.860530  1
  C  C3  1  0.698300  0.079900  0.751530  1
  C  C4  1  0.885000  0.406500  0.832400  1
  C  C5  1  0.576800  0.369900  0.633150  1
  C  C6  1  0.344700  0.144300  0.828370  1
  C  C7  1  0.562500  0.265500  0.952260  1
  C  C8  1  0.560800  -0.032200  0.686480  1
  C  C9  1  0.728700  0.007900  0.824950  1
  C  C10  1  1.021600  0.407900  0.773940  1
  C  C11  1  0.877100  0.563400  0.855970  1
  C  C12  1  0.537700  0.433400  0.565280  1
  C  C13  1  0.210500  0.151700  0.886180  1
  C  C14  1  0.426400  0.271800  1.009060  1
  C  C15  1  0.595600  -0.174800  0.656400  1
  C  C16  1  0.766400  -0.132900  0.792760  1
  C  C17  1  1.190100  0.526400  0.810200  1
  C  C18  1  1.045500  0.680000  0.892520  1
  C  C19  1  0.667100  0.537300  0.533480  1
  C  C20  1  0.370200  0.395100  0.533310  1
  C  C21  1  0.262300  0.146800  0.975330  1
  C  C22  1  0.627300  -0.242300  0.730590  1
  C  C23  1  1.176300  0.680000  0.832200  1
  C  C24  1  0.834100  0.579000  0.567480  1
  C  C25  1  0.629800  0.604900  0.466690  1
  C  C26  1  0.332900  0.462700  0.466520  1
  C  C27  1  0.239700  0.288800  0.563520  1
  C  C28  1  0.957000  0.683300  0.537290  1
  C  C29  1  0.462300  0.566600  0.434720  1
  C  C30  1  0.760300  0.711200  0.436480  1
  C  C31  1  0.165900  0.421000  0.432520  1
  C  C32  1  0.080000  0.250200  0.529250  1
  C  C33  1  0.920000  0.749800  0.470750  1
  C  C34  1  0.423200  0.630100  0.366850  1
  C  C35  1  0.043000  0.316700  0.462710  1
  C  C36  1  -0.064300  0.134100  0.547600  1
  C  C37  1  1.064300  0.865900  0.452400  1
  C  C38  1  1.202700  0.883500  0.503200  1
  C  C39  1  0.385300  0.676800  0.307780  1
  C  C40  1  -0.202700  0.116500  0.496800  1
  C  C41  1  0.487400  0.732300  0.139470  1
  C  C42  1  0.301700  0.920100  0.248470  1
  C  C43  1  0.115000  0.593500  0.167600  1
  C  C44  1  0.655300  0.855700  0.171630  1
  C  C45  1  0.437500  0.734500  0.047740  1
  C  C46  1  0.439200  1.032200  0.313520  1
  C  C47  1  0.271300  0.992100  0.175050  1
  C  C48  1  -0.021600  0.592100  0.226060  1
  C  C49  1  0.122900  0.436600  0.144030  1
  C  C50  1  0.789500  0.848300  0.113820  1
  C  C51  1  0.573600  0.728200  -0.009060  1
  C  C52  1  0.404400  1.174800  0.343600  1
  C  C53  1  0.233600  1.132900  0.207240  1
  C  C54  1  -0.190100  0.473600  0.189800  1
  C  C55  1  -0.045500  0.320000  0.107480  1
  C  C56  1  0.737700  0.853200  0.024670  1
  C  C57  1  0.372700  1.242300  0.269410  1
  C  C58  1  -0.176300  0.320000  0.167800  1
  H  H59  1  0.494400  0.363600  0.861500  1
  H  H60  1  0.801800  0.100500  0.722300  1
  H  H61  1  0.916700  0.378900  0.885500  1
  H  H62  1  0.309600  0.153100  0.771300  1
  H  H63  1  0.357900  0.046700  0.824100  1
  H  H64  1  0.586600  0.173900  0.954100  1
  H  H65  1  0.664900  0.351100  0.973700  1
  H  H66  1  0.454100  -0.056500  0.711800  1
  H  H67  1  0.550000  0.013400  0.637500  1
  H  H68  1  0.823100  0.079200  0.864200  1
  H  H69  1  0.629400  -0.016900  0.856300  1
  H  H70  1  0.988400  0.426600  0.719000  1
  H  H71  1  1.033100  0.309300  0.764000  1
  H  H72  1  0.837600  0.590500  0.805200  1
  H  H73  1  0.795900  0.563100  0.897800  1
  H  H74  1  0.188200  0.244500  0.885600  1
  H  H75  1  0.106700  0.067400  0.864900  1
  H  H76  1  0.411200  0.368500  1.012700  1
  H  H77  1  0.460100  0.263500  1.066500  1
  H  H78  1  0.499600  -0.246900  0.618500  1
  H  H79  1  0.693600  -0.153000  0.624000  1
  H  H80  1  0.870700  -0.106900  0.765300  1
  H  H81  1  0.782000  -0.178800  0.840900  1
  H  H82  1  1.230700  0.501100  0.861400  1
  H  H83  1  1.271500  0.527600  0.768400  1
  H  H84  1  1.035400  0.779300  0.903900  1
  H  H85  1  1.080000  0.659200  0.946600  1
  H  H86  1  0.274400  0.050100  0.976700  1
  H  H87  1  0.175200  0.156300  1.011900  1
  H  H88  1  0.525000  -0.274000  0.759300  1
  H  H89  1  0.655900  -0.331100  0.709600  1
  H  H90  1  1.284700  0.753100  0.858400  1
  H  H91  1  1.147000  0.709800  0.780100  1
  H  H92  1  0.860600  0.534500  0.611100  1
  H  H93  1  0.263100  0.244100  0.607800  1
  H  H94  1  0.736900  0.755900  0.392200  1
  H  H95  1  0.139400  0.465500  0.388900  1
  H  H96  1  -0.062900  0.077400  0.589600  1
  H  H97  1  1.062900  0.922600  0.410400  1
  H  H98  1  1.308700  0.954400  0.500000  1
  H  H99  1  -0.308700  0.045600  0.500000  1
  H  H100  1  0.505600  0.636400  0.138500  1
  H  H101  1  0.198200  0.899500  0.277700  1
  H  H102  1  0.083300  0.621100  0.114500  1
  H  H103  1  0.690400  0.846900  0.228700  1
  H  H104  1  0.642100  0.953300  0.175900  1
  H  H105  1  0.413400  0.826100  0.045900  1
  H  H106  1  0.335100  0.648900  0.026300  1
  H  H107  1  0.545900  1.056500  0.288200  1
  H  H108  1  0.450000  0.986600  0.362500  1
  H  H109  1  0.176900  0.920800  0.135800  1
  H  H110  1  0.370600  1.016900  0.143700  1
  H  H111  1  0.011600  0.573400  0.281000  1
  H  H112  1  -0.033100  0.690700  0.236000  1
  H  H113  1  0.162400  0.409500  0.194800  1
  H  H114  1  0.204100  0.436900  0.102200  1
  H  H115  1  0.811800  0.755500  0.114400  1
  H  H116  1  0.893300  0.932600  0.135100  1
  H  H117  1  0.588800  0.631500  -0.012700  1
  H  H118  1  0.539900  0.736500  -0.066500  1
  H  H119  1  0.500400  1.246900  0.381500  1
  H  H120  1  0.306400  1.153000  0.376000  1
  H  H121  1  0.129300  1.106900  0.234700  1
  H  H122  1  0.218000  1.178800  0.159100  1
  H  H123  1  -0.230700  0.498900  0.138600  1
  H  H124  1  -0.271500  0.472400  0.231600  1
  H  H125  1  -0.035400  0.220700  0.096100  1
  H  H126  1  -0.080000  0.340800  0.053400  1
  H  H127  1  0.725600  0.949900  0.023300  1
  H  H128  1  0.824800  0.843700  -0.011900  1
  H  H129  1  0.475000  1.274000  0.240700  1
  H  H130  1  0.344100  1.331100  0.290400  1
  H  H131  1  -0.284700  0.246900  0.141600  1
  H  H132  1  -0.147000  0.290200  0.219900  1
  S  S133  1  1.165300  0.762800  0.574240  1
  S  S134  1  -0.165300  0.237200  0.425760  1
  Si  Si135  1  0.676890  0.265290  0.786560  1.0
  Si  Si136  1  0.323110  0.734710  0.213440  1
