# generated using pymatgen
data_SiH27C22
_symmetry_space_group_name_H-M   'P 1'
_cell_length_a   8.66300000
_cell_length_b   12.70700000
_cell_length_c   19.49500000
_cell_angle_alpha   85.10400000
_cell_angle_beta   82.45600000
_cell_angle_gamma   84.72100000
_symmetry_Int_Tables_number   1
_chemical_formula_structural   SiH27C22
_chemical_formula_sum   'Si4 H108 C88'
_cell_volume   2112.58189997
_cell_formula_units_Z   4
loop_
 _symmetry_equiv_pos_site_id
 _symmetry_equiv_pos_as_xyz
  1  'x, y, z'
loop_
 _atom_site_type_symbol
 _atom_site_label
 _atom_site_symmetry_multiplicity
 _atom_site_fract_x
 _atom_site_fract_y
 _atom_site_fract_z
 _atom_site_occupancy
  C  C1  1  0.576500  0.810400  0.171700  1
  C  C2  1  0.834400  0.725800  0.254100  1
  C  C3  1  0.525700  0.830900  0.323200  1
  C  C4  1  0.537300  0.610500  0.264900  1
  C  C5  1  0.552900  0.864800  0.120500  1
  C  C6  1  0.917100  0.830300  0.236100  1
  C  C7  1  0.564300  0.798700  0.396800  1
  C  C8  1  0.394700  0.597700  0.247200  1
  C  C9  1  0.526500  0.933900  0.059900  1
  C  C10  1  1.085000  0.820900  0.239300  1
  C  C11  1  0.486300  0.875500  0.449000  1
  C  C12  1  0.328000  0.490200  0.251700  1
  C  C13  1  0.393000  0.922600  0.026400  1
  C  C14  1  0.631700  1.009100  0.035400  1
  C  C15  1  0.284500  0.848100  0.050900  1
  C  C16  1  0.368300  0.990900  -0.035400  1
  C  C17  1  0.607000  1.077400  -0.026400  1
  C  C18  1  0.766200  1.022200  0.067800  1
  C  C19  1  0.154900  0.838500  0.018200  1
  C  C20  1  0.473500  1.066100  -0.059900  1
  C  C21  1  0.233800  0.977800  -0.067800  1
  C  C22  1  0.715500  1.151900  -0.050900  1
  C  C23  1  0.870100  1.093600  0.043800  1
  C  C24  1  0.040600  0.763100  0.044100  1
  C  C25  1  0.129900  0.906400  -0.043800  1
  C  C26  1  0.447100  1.135200  -0.120500  1
  C  C27  1  0.845100  1.161500  -0.018200  1
  C  C28  1  1.009000  1.103000  0.074500  1
  C  C29  1  -0.085700  0.757600  0.010500  1
  C  C30  1  -0.009000  0.897000  -0.074500  1
  C  C31  1  0.423500  1.189600  -0.171700  1
  C  C32  1  0.959400  1.236900  -0.044100  1
  C  C33  1  1.112000  1.174900  0.049200  1
  C  C34  1  -0.112000  0.825100  -0.049200  1
  C  C35  1  1.085700  1.242400  -0.010500  1
  C  C36  1  0.165600  1.274200  -0.254100  1
  C  C37  1  0.474300  1.169100  -0.323200  1
  C  C38  1  0.462700  1.389500  -0.264900  1
  C  C39  1  0.082900  1.169700  -0.236100  1
  C  C40  1  0.435700  1.201300  -0.396800  1
  C  C41  1  0.605300  1.402300  -0.247200  1
  C  C42  1  -0.085000  1.179100  -0.239300  1
  C  C43  1  0.513700  1.124500  -0.449000  1
  C  C44  1  0.672000  1.509800  -0.251700  1
  C  C45  1  0.663000  0.316500  0.341400  1
  C  C46  1  0.585800  0.145300  0.257600  1
  C  C47  1  0.898800  0.139600  0.301800  1
  C  C48  1  0.791400  0.317600  0.192100  1
  C  C49  1  0.614500  0.372300  0.387800  1
  C  C50  1  0.454600  0.189700  0.233100  1
  C  C51  1  0.854700  0.066800  0.366200  1
  C  C52  1  0.924700  0.386300  0.197100  1
  C  C53  1  0.556700  0.437800  0.443900  1
  C  C54  1  0.329500  0.106200  0.214900  1
  C  C55  1  0.988300  0.002300  0.393400  1
  C  C56  1  0.961600  0.461900  0.132600  1
  C  C57  1  0.653500  0.510300  0.464000  1
  C  C58  1  0.403500  0.427200  0.478800  1
  C  C59  1  0.803700  0.523600  0.429300  1
  C  C60  1  0.596500  0.572800  0.521200  1
  C  C61  1  0.346500  0.489700  0.536000  1
  C  C62  1  0.305000  0.357600  0.458000  1
  C  C63  1  0.899700  0.592400  0.449600  1
  C  C64  1  0.443300  0.562200  0.556100  1
  C  C65  1  0.695000  0.642400  0.542000  1
  C  C66  1  0.196300  0.476400  0.570700  1
  C  C67  1  0.155000  0.346900  0.491500  1
  C  C68  1  1.053100  0.607300  0.416100  1
  C  C69  1  0.845000  0.653100  0.508500  1
  C  C70  1  0.385500  0.627700  0.612200  1
  C  C71  1  0.100300  0.407600  0.550400  1
  C  C72  1  0.052200  0.277400  0.470200  1
  C  C73  1  1.144100  0.673900  0.437800  1
  C  C74  1  0.947800  0.722600  0.529800  1
  C  C75  1  0.337000  0.683500  0.658600  1
  C  C76  1  -0.053100  0.392700  0.583900  1
  C  C77  1  -0.090300  0.266800  0.504900  1
  C  C78  1  1.090300  0.733200  0.495100  1
  C  C79  1  -0.144100  0.326100  0.562200  1
  C  C80  1  0.414200  0.854700  0.742400  1
  C  C81  1  0.101200  0.860400  0.698200  1
  C  C82  1  0.208600  0.682400  0.807900  1
  C  C83  1  0.545400  0.810300  0.766900  1
  C  C84  1  0.145300  0.933200  0.633800  1
  C  C85  1  0.075300  0.613700  0.802900  1
  C  C86  1  0.670500  0.893800  0.785100  1
  C  C87  1  0.011700  0.997700  0.606600  1
  C  C88  1  0.038400  0.538100  0.867400  1
  H  H89  1  0.859200  0.695000  0.300200  1
  H  H90  1  0.878000  0.674500  0.219700  1
  H  H91  1  0.558600  0.903100  0.309600  1
  H  H92  1  0.410800  0.834400  0.323800  1
  H  H93  1  0.613400  0.562600  0.237500  1
  H  H94  1  0.536700  0.583900  0.314200  1
  H  H95  1  0.898300  0.858100  0.188600  1
  H  H96  1  0.867600  0.883200  0.268300  1
  H  H97  1  0.530200  0.727100  0.411300  1
  H  H98  1  0.679000  0.795300  0.396900  1
  H  H99  1  0.394300  0.627400  0.198600  1
  H  H100  1  0.318600  0.643800  0.276000  1
  H  H101  1  1.104900  0.804000  0.287500  1
  H  H102  1  1.128100  0.888100  0.221800  1
  H  H103  1  1.134800  0.764300  0.210800  1
  H  H104  1  0.518300  0.946900  0.434500  1
  H  H105  1  0.517800  0.853200  0.494800  1
  H  H106  1  0.372600  0.876000  0.451200  1
  H  H107  1  0.381400  0.448900  0.214000  1
  H  H108  1  0.216000  0.500300  0.247500  1
  H  H109  1  0.343800  0.452000  0.296400  1
  H  H110  1  0.300800  0.802900  0.091200  1
  H  H111  1  0.783500  0.978400  0.108500  1
  H  H112  1  0.216500  1.021600  -0.108500  1
  H  H113  1  0.699200  1.197100  -0.091200  1
  H  H114  1  0.054300  0.717800  0.084600  1
  H  H115  1  1.029700  1.057300  0.114000  1
  H  H116  1  -0.158400  0.707000  0.027500  1
  H  H117  1  -0.029700  0.942700  -0.114000  1
  H  H118  1  0.945700  1.282200  -0.084600  1
  H  H119  1  1.201900  1.180000  0.071500  1
  H  H120  1  -0.201900  0.820000  -0.071500  1
  H  H121  1  1.158400  1.293000  -0.027500  1
  H  H122  1  0.140800  1.305000  -0.300200  1
  H  H123  1  0.122000  1.325500  -0.219700  1
  H  H124  1  0.441400  1.096900  -0.309600  1
  H  H125  1  0.589200  1.165600  -0.323800  1
  H  H126  1  0.386600  1.437400  -0.237500  1
  H  H127  1  0.463300  1.416100  -0.314200  1
  H  H128  1  0.101700  1.141900  -0.188600  1
  H  H129  1  0.132400  1.116800  -0.268300  1
  H  H130  1  0.469800  1.272900  -0.411300  1
  H  H131  1  0.321000  1.204700  -0.396900  1
  H  H132  1  0.605700  1.372600  -0.198600  1
  H  H133  1  0.681400  1.356200  -0.276000  1
  H  H134  1  -0.104900  1.196000  -0.287500  1
  H  H135  1  -0.128100  1.111900  -0.221800  1
  H  H136  1  -0.134800  1.235700  -0.210800  1
  H  H137  1  0.481700  1.053100  -0.434500  1
  H  H138  1  0.482200  1.146800  -0.494800  1
  H  H139  1  0.627400  1.124000  -0.451200  1
  H  H140  1  0.618600  1.551100  -0.214000  1
  H  H141  1  0.784000  1.499700  -0.247500  1
  H  H142  1  0.656200  1.548000  -0.296400  1
  H  H143  1  0.634900  0.092500  0.225100  1
  H  H144  1  0.554300  0.105900  0.302500  1
  H  H145  1  0.944800  0.095300  0.263700  1
  H  H146  1  0.980700  0.183600  0.311600  1
  H  H147  1  0.822200  0.272900  0.152600  1
  H  H148  1  0.698700  0.364700  0.181500  1
  H  H149  1  0.485200  0.234600  0.190300  1
  H  H150  1  0.398700  0.236900  0.267700  1
  H  H151  1  0.800600  0.110500  0.403200  1
  H  H152  1  0.779700  0.018400  0.355200  1
  H  H153  1  1.019800  0.339500  0.204500  1
  H  H154  1  0.897100  0.428400  0.238000  1
  H  H155  1  0.372400  0.071900  0.172600  1
  H  H156  1  0.229400  0.145700  0.208000  1
  H  H157  1  0.313300  0.052200  0.253600  1
  H  H158  1  1.051000  -0.034200  0.355600  1
  H  H159  1  0.948900  -0.050100  0.429700  1
  H  H160  1  1.053200  0.048700  0.412700  1
  H  H161  1  0.996600  0.420800  0.092300  1
  H  H162  1  1.044400  0.505800  0.140100  1
  H  H163  1  0.867500  0.507600  0.124100  1
  H  H164  1  0.840300  0.483600  0.390500  1
  H  H165  1  0.342000  0.316400  0.419800  1
  H  H166  1  0.658000  0.683600  0.580200  1
  H  H167  1  0.159700  0.516400  0.609500  1
  H  H168  1  1.092200  0.568700  0.377000  1
  H  H169  1  0.085500  0.238100  0.430800  1
  H  H170  1  1.246200  0.681200  0.414200  1
  H  H171  1  0.914500  0.761900  0.569200  1
  H  H172  1  -0.092200  0.431300  0.623000  1
  H  H173  1  -0.155500  0.218700  0.490700  1
  H  H174  1  1.155500  0.781300  0.509300  1
  H  H175  1  -0.246200  0.318800  0.585800  1
  H  H176  1  0.365100  0.907500  0.774900  1
  H  H177  1  0.445700  0.894100  0.697500  1
  H  H178  1  0.055200  0.904700  0.736300  1
  H  H179  1  0.019300  0.816400  0.688400  1
  H  H180  1  0.177800  0.727100  0.847400  1
  H  H181  1  0.301300  0.635300  0.818500  1
  H  H182  1  0.514800  0.765400  0.809700  1
  H  H183  1  0.601300  0.763100  0.732300  1
  H  H184  1  0.199400  0.889500  0.596800  1
  H  H185  1  0.220300  0.981600  0.644800  1
  H  H186  1  -0.019800  0.660500  0.795500  1
  H  H187  1  0.102900  0.571600  0.762000  1
  H  H188  1  0.627600  0.928100  0.827400  1
  H  H189  1  0.770600  0.854300  0.792000  1
  H  H190  1  0.686700  0.947800  0.746400  1
  H  H191  1  -0.051000  1.034200  0.644400  1
  H  H192  1  0.051100  1.050100  0.570300  1
  H  H193  1  -0.053200  0.951300  0.587300  1
  H  H194  1  0.003400  0.579200  0.907700  1
  H  H195  1  -0.044400  0.494200  0.859900  1
  H  H196  1  0.132500  0.492400  0.875900  1
  Si  Si197  1  0.617000  0.741970  0.255700  1.0
  Si  Si198  1  0.383000  1.258030  -0.255700  1
  Si  Si199  1  0.734100  0.230010  0.270870  1.0
  Si  Si200  1  0.265900  0.769990  0.729130  1
