# generated using pymatgen
data_SiH19C17S
_symmetry_space_group_name_H-M   'P 1'
_cell_length_a   6.68250000
_cell_length_b   7.25460000
_cell_length_c   16.68450000
_cell_angle_alpha   97.82610000
_cell_angle_beta   94.76070000
_cell_angle_gamma   103.75770000
_symmetry_Int_Tables_number   1
_chemical_formula_structural   SiH19C17S
_chemical_formula_sum   'Si2 H38 C34 S2'
_cell_volume   772.70741134
_cell_formula_units_Z   2
loop_
 _symmetry_equiv_pos_site_id
 _symmetry_equiv_pos_as_xyz
  1  'x, y, z'
loop_
 _atom_site_type_symbol
 _atom_site_label
 _atom_site_symmetry_multiplicity
 _atom_site_fract_x
 _atom_site_fract_y
 _atom_site_fract_z
 _atom_site_occupancy
  C  C1  1  0.703800  0.396700  0.279900  1
  C  C2  1  1.078500  0.431200  0.187880  1
  C  C3  1  0.693000  0.562600  0.127560  1
  C  C4  1  0.675200  0.130900  0.120020  1
  C  C5  1  0.644900  0.422400  0.346080  1
  C  C6  1  1.194200  0.619900  0.242380  1
  C  C7  1  0.771800  0.594300  0.045370  1
  C  C8  1  0.446200  0.045800  0.126740  1
  C  C9  1  0.573800  0.459100  0.423910  1
  C  C10  1  0.368700  0.365600  0.435210  1
  C  C11  1  0.707000  0.590400  0.487750  1
  C  C12  1  0.236900  0.226800  0.372640  1
  C  C13  1  0.293000  0.409600  0.512250  1
  C  C14  1  0.631300  0.634400  0.564790  1
  C  C15  1  0.915100  0.678700  0.477730  1
  C  C16  1  0.039200  0.141400  0.385390  1
  C  C17  1  0.426200  0.540900  0.576090  1
  C  C18  1  0.084900  0.321300  0.522270  1
  C  C19  1  0.763100  0.773200  0.627360  1
  C  C20  1  1.041100  0.809100  0.539890  1
  C  C21  1  -0.041100  0.190900  0.460110  1
  C  C22  1  0.355100  0.577600  0.653920  1
  C  C23  1  0.960800  0.858600  0.614610  1
  C  C24  1  1.253400  0.910700  0.542400  1
  C  C25  1  -0.253400  0.089300  0.457600  1
  C  C26  1  -0.329700  -0.033000  0.388360  1
  C  C27  1  0.296200  0.603300  0.720100  1
  C  C28  1  1.329700  1.033000  0.611640  1
  C  C29  1  -0.078500  0.568800  0.812120  1
  C  C30  1  0.307000  0.437400  0.872440  1
  C  C31  1  0.324800  0.869100  0.879980  1
  C  C32  1  -0.194200  0.380100  0.757620  1
  C  C33  1  0.228200  0.405700  0.954630  1
  C  C34  1  0.553800  0.954200  0.873260  1
  H  H35  1  1.120800  0.324200  0.209800  1
  H  H36  1  1.123100  0.433300  0.132800  1
  H  H37  1  0.539400  0.522900  0.119100  1
  H  H38  1  0.734500  0.686800  0.165100  1
  H  H39  1  0.692300  0.133000  0.061700  1
  H  H40  1  0.756000  0.044300  0.139600  1
  H  H41  1  1.155100  0.727600  0.221200  1
  H  H42  1  1.344100  0.635700  0.242900  1
  H  H43  1  1.157400  0.617300  0.297900  1
  H  H44  1  0.923300  0.641700  0.053300  1
  H  H45  1  0.710400  0.689000  0.022900  1
  H  H46  1  0.732100  0.472500  0.007500  1
  H  H47  1  0.426800  0.041200  0.184100  1
  H  H48  1  0.401900  -0.084700  0.095600  1
  H  H49  1  0.363100  0.126100  0.104900  1
  H  H50  1  0.285900  0.193500  0.322200  1
  H  H51  1  0.967400  0.647600  0.427800  1
  H  H52  1  0.032600  0.352400  0.572200  1
  H  H53  1  0.714100  0.806500  0.677800  1
  H  H54  1  1.333200  0.893000  0.498800  1
  H  H55  1  -0.333200  0.107000  0.501200  1
  H  H56  1  -0.467900  -0.111400  0.378100  1
  H  H57  1  1.467900  1.111400  0.621900  1
  H  H58  1  -0.120800  0.675800  0.790200  1
  H  H59  1  -0.123100  0.566700  0.867200  1
  H  H60  1  0.460600  0.477100  0.880900  1
  H  H61  1  0.265500  0.313200  0.834900  1
  H  H62  1  0.307700  0.867000  0.938300  1
  H  H63  1  0.244000  0.955700  0.860400  1
  H  H64  1  -0.155100  0.272400  0.778800  1
  H  H65  1  -0.344100  0.364300  0.757100  1
  H  H66  1  -0.157400  0.382700  0.702100  1
  H  H67  1  0.076700  0.358300  0.946700  1
  H  H68  1  0.289600  0.311000  0.977100  1
  H  H69  1  0.267900  0.527500  0.992500  1
  H  H70  1  0.573200  0.958800  0.815900  1
  H  H71  1  0.598100  1.084700  0.904400  1
  H  H72  1  0.636900  0.873900  0.895100  1
  S  S73  1  -0.148710  -0.033240  0.319040  1
  S  S74  1  1.148710  1.033240  0.680960  1
  Si  Si75  1  0.788880  0.379210  0.177760  1.0
  Si  Si76  1  0.211120  0.620790  0.822240  1
