# generated using pymatgen
data_SiH34C27
_symmetry_space_group_name_H-M   'P 1'
_cell_length_a   13.06760000
_cell_length_b   18.33780000
_cell_length_c   20.13770000
_cell_angle_alpha   90.00000000
_cell_angle_beta   108.23520000
_cell_angle_gamma   90.00000000
_symmetry_Int_Tables_number   1
_chemical_formula_structural   SiH34C27
_chemical_formula_sum   'Si8 H272 C216'
_cell_volume   4583.27530776
_cell_formula_units_Z   8
loop_
 _symmetry_equiv_pos_site_id
 _symmetry_equiv_pos_as_xyz
  1  'x, y, z'
loop_
 _atom_site_type_symbol
 _atom_site_label
 _atom_site_symmetry_multiplicity
 _atom_site_fract_x
 _atom_site_fract_y
 _atom_site_fract_z
 _atom_site_occupancy
  C  C1  1  0.830600  0.726700  0.515400  1
  C  C2  1  0.932400  0.876500  0.528100  1
  C  C3  1  0.770600  0.848600  0.597600  1
  C  C4  1  0.966400  0.773800  0.658000  1
  C  C5  1  0.793900  0.683200  0.469300  1
  C  C6  1  0.995700  0.847200  0.481200  1
  C  C7  1  0.707700  0.819100  0.641500  1
  C  C8  1  0.967300  0.694200  0.678300  1
  C  C9  1  0.752800  0.629800  0.416000  1
  C  C10  1  1.093300  0.807200  0.519400  1
  C  C11  1  1.026500  0.913700  0.442100  1
  C  C12  1  0.624000  0.873100  0.651000  1
  C  C13  1  0.652100  0.747400  0.613400  1
  C  C14  1  1.017200  0.683900  0.758100  1
  C  C15  1  1.028200  0.647200  0.640200  1
  C  C16  1  0.650400  0.597500  0.407600  1
  C  C17  1  0.815500  0.608200  0.373300  1
  C  C18  1  0.586700  0.618400  0.448500  1
  C  C19  1  0.612300  0.539800  0.356700  1
  C  C20  1  0.776000  0.551900  0.321100  1
  C  C21  1  0.917800  0.638900  0.380800  1
  C  C22  1  0.487700  0.585300  0.443000  1
  C  C23  1  0.514600  0.506200  0.351900  1
  C  C24  1  0.675900  0.517900  0.314200  1
  C  C25  1  0.839900  0.531400  0.279700  1
  C  C26  1  0.979600  0.617600  0.340000  1
  C  C27  1  0.423700  0.605400  0.484800  1
  C  C28  1  0.451100  0.526400  0.393500  1
  C  C29  1  0.637900  0.459800  0.265100  1
  C  C30  1  0.939300  0.562000  0.287200  1
  C  C31  1  1.084800  0.646700  0.348800  1
  C  C32  1  0.327500  0.570900  0.479700  1
  C  C33  1  0.353100  0.491600  0.388900  1
  C  C34  1  0.603700  0.410300  0.224600  1
  C  C35  1  1.006400  0.539800  0.246400  1
  C  C36  1  1.145000  0.623000  0.309700  1
  C  C37  1  0.261700  0.591400  0.521600  1
  C  C38  1  0.290900  0.512200  0.430300  1
  C  C39  1  1.105700  0.568900  0.257900  1
  C  C40  1  0.168200  0.556400  0.515900  1
  C  C41  1  0.191500  0.476800  0.426300  1
  C  C42  1  0.600200  0.358100  0.080900  1
  C  C43  1  0.622300  0.246700  0.209600  1
  C  C44  1  0.404500  0.321800  0.147100  1
  C  C45  1  0.132100  0.498500  0.467200  1
  C  C46  1  0.609800  0.438100  0.061700  1
  C  C47  1  0.592600  0.213500  0.270200  1
  C  C48  1  0.351600  0.355100  0.197100  1
  C  C49  1  0.501500  0.477600  0.047200  1
  C  C50  1  0.652100  0.446000  0.000300  1
  C  C51  1  0.641100  0.138400  0.288800  1
  C  C52  1  0.624500  0.261900  0.335100  1
  C  C53  1  0.323600  0.432500  0.180000  1
  C  C54  1  0.252600  0.311600  0.198000  1
  C  C55  1  0.169400  0.226700  -0.015400  1
  C  C56  1  0.067600  0.376500  -0.028100  1
  C  C57  1  0.229400  0.348600  -0.097600  1
  C  C58  1  0.033600  0.273800  -0.158000  1
  C  C59  1  0.206100  0.183200  0.030700  1
  C  C60  1  0.004300  0.347200  0.018800  1
  C  C61  1  0.292300  0.319100  -0.141500  1
  C  C62  1  0.032700  0.194200  -0.178300  1
  C  C63  1  0.247200  0.129800  0.084000  1
  C  C64  1  -0.093300  0.307200  -0.019400  1
  C  C65  1  -0.026500  0.413700  0.057900  1
  C  C66  1  0.376000  0.373100  -0.151000  1
  C  C67  1  0.347900  0.247400  -0.113400  1
  C  C68  1  -0.017200  0.183900  -0.258100  1
  C  C69  1  -0.028200  0.147200  -0.140200  1
  C  C70  1  0.349600  0.097500  0.092400  1
  C  C71  1  0.184500  0.108200  0.126700  1
  C  C72  1  0.413300  0.118400  0.051500  1
  C  C73  1  0.387700  0.039800  0.143300  1
  C  C74  1  0.224000  0.051900  0.178900  1
  C  C75  1  0.082200  0.138900  0.119200  1
  C  C76  1  0.512300  0.085300  0.057000  1
  C  C77  1  0.485400  0.006200  0.148100  1
  C  C78  1  0.324100  0.017900  0.185800  1
  C  C79  1  0.160100  0.031400  0.220300  1
  C  C80  1  0.020400  0.117600  0.160000  1
  C  C81  1  0.576300  0.105400  0.015200  1
  C  C82  1  0.548900  0.026400  0.106500  1
  C  C83  1  0.362100  -0.040200  0.234900  1
  C  C84  1  0.060700  0.062000  0.212800  1
  C  C85  1  -0.084800  0.146700  0.151200  1
  C  C86  1  0.672500  0.070900  0.020300  1
  C  C87  1  0.646900  -0.008400  0.111100  1
  C  C88  1  0.396300  -0.089700  0.275400  1
  C  C89  1  -0.006400  0.039800  0.253600  1
  C  C90  1  -0.145000  0.123000  0.190300  1
  C  C91  1  0.738300  0.091400  -0.021600  1
  C  C92  1  0.709100  0.012200  0.069700  1
  C  C93  1  -0.105700  0.068900  0.242100  1
  C  C94  1  0.831800  0.056400  -0.015900  1
  C  C95  1  0.808500  -0.023200  0.073700  1
  C  C96  1  0.399800  -0.141900  0.419100  1
  C  C97  1  0.377700  -0.253300  0.290400  1
  C  C98  1  0.595500  -0.178200  0.352900  1
  C  C99  1  0.867900  -0.001500  0.032800  1
  C  C100  1  0.390200  -0.061900  0.438300  1
  C  C101  1  0.407400  -0.286500  0.229800  1
  C  C102  1  0.648400  -0.144900  0.302900  1
  C  C103  1  0.498500  -0.022400  0.452800  1
  C  C104  1  0.347900  -0.054000  0.499700  1
  C  C105  1  0.358900  -0.361600  0.211200  1
  C  C106  1  0.375500  -0.238100  0.164900  1
  C  C107  1  0.676400  -0.067500  0.320000  1
  C  C108  1  0.747400  -0.188400  0.302000  1
  C  C109  1  0.169400  0.273300  0.484600  1
  C  C110  1  0.067600  0.123500  0.471900  1
  C  C111  1  0.229400  0.151400  0.402400  1
  C  C112  1  0.033600  0.226200  0.342000  1
  C  C113  1  0.206100  0.316800  0.530700  1
  C  C114  1  0.004300  0.152800  0.518800  1
  C  C115  1  0.292300  0.180900  0.358500  1
  C  C116  1  0.032700  0.305800  0.321700  1
  C  C117  1  0.247200  0.370200  0.584000  1
  C  C118  1  -0.093300  0.192800  0.480600  1
  C  C119  1  -0.026500  0.086300  0.557900  1
  C  C120  1  0.376000  0.126900  0.349000  1
  C  C121  1  0.347900  0.252600  0.386600  1
  C  C122  1  -0.017200  0.316100  0.241900  1
  C  C123  1  -0.028200  0.352800  0.359800  1
  C  C124  1  0.349600  0.402500  0.592400  1
  C  C125  1  0.184500  0.391800  0.626700  1
  C  C126  1  0.413300  0.381600  0.551500  1
  C  C127  1  0.387700  0.460200  0.643300  1
  C  C128  1  0.224000  0.448100  0.678900  1
  C  C129  1  0.082200  0.361100  0.619200  1
  C  C130  1  0.512300  0.414700  0.557000  1
  C  C131  1  0.485400  0.493800  0.648100  1
  C  C132  1  0.324100  0.482100  0.685800  1
  C  C133  1  0.160100  0.468600  0.720300  1
  C  C134  1  0.020400  0.382400  0.660000  1
  C  C135  1  0.576300  0.394600  0.515200  1
  C  C136  1  0.548900  0.473600  0.606500  1
  C  C137  1  0.362100  0.540200  0.734900  1
  C  C138  1  0.060700  0.438000  0.712800  1
  C  C139  1  -0.084800  0.353300  0.651200  1
  C  C140  1  0.672500  0.429100  0.520300  1
  C  C141  1  0.646900  0.508400  0.611100  1
  C  C142  1  0.396300  0.589700  0.775400  1
  C  C143  1  -0.006400  0.460200  0.753600  1
  C  C144  1  -0.145000  0.377000  0.690300  1
  C  C145  1  0.738300  0.408600  0.478400  1
  C  C146  1  0.709100  0.487800  0.569700  1
  C  C147  1  -0.105700  0.431100  0.742100  1
  C  C148  1  0.831800  0.443600  0.484100  1
  C  C149  1  0.808500  0.523200  0.573700  1
  C  C150  1  0.399800  0.641900  0.919100  1
  C  C151  1  0.377700  0.753300  0.790400  1
  C  C152  1  0.595500  0.678200  0.852900  1
  C  C153  1  0.867900  0.501500  0.532800  1
  C  C154  1  0.390200  0.561900  0.938300  1
  C  C155  1  0.407400  0.786500  0.729800  1
  C  C156  1  0.648400  0.644900  0.802900  1
  C  C157  1  0.498500  0.522400  0.952800  1
  C  C158  1  0.347900  0.554000  0.999700  1
  C  C159  1  0.358900  0.861600  0.711200  1
  C  C160  1  0.375500  0.738100  0.664900  1
  C  C161  1  0.676400  0.567500  0.820000  1
  C  C162  1  0.747400  0.688400  0.802000  1
  C  C163  1  0.830600  0.773300  0.015400  1
  C  C164  1  0.932400  0.623500  0.028100  1
  C  C165  1  0.770600  0.651400  0.097600  1
  C  C166  1  0.966400  0.726200  0.158000  1
  C  C167  1  0.793900  0.816800  -0.030700  1
  C  C168  1  0.995700  0.652800  -0.018800  1
  C  C169  1  0.707700  0.680900  0.141500  1
  C  C170  1  0.967300  0.805800  0.178300  1
  C  C171  1  0.752800  0.870200  -0.084000  1
  C  C172  1  1.093300  0.692800  0.019400  1
  C  C173  1  1.026500  0.586300  -0.057900  1
  C  C174  1  0.624000  0.626900  0.151000  1
  C  C175  1  0.652100  0.752600  0.113400  1
  C  C176  1  1.017200  0.816100  0.258100  1
  C  C177  1  1.028200  0.852800  0.140200  1
  C  C178  1  0.650400  0.902500  -0.092400  1
  C  C179  1  0.815500  0.891800  -0.126700  1
  C  C180  1  0.586700  0.881600  -0.051500  1
  C  C181  1  0.612300  0.960200  -0.143300  1
  C  C182  1  0.776000  0.948100  -0.178900  1
  C  C183  1  0.917800  0.861100  -0.119200  1
  C  C184  1  0.487700  0.914700  -0.057000  1
  C  C185  1  0.514600  0.993800  -0.148100  1
  C  C186  1  0.675900  0.982100  -0.185800  1
  C  C187  1  0.839900  0.968600  -0.220300  1
  C  C188  1  0.979600  0.882400  -0.160000  1
  C  C189  1  0.423700  0.894600  -0.015200  1
  C  C190  1  0.451100  0.973600  -0.106500  1
  C  C191  1  0.637900  1.040200  -0.234900  1
  C  C192  1  0.939300  0.938000  -0.212800  1
  C  C193  1  1.084800  0.853300  -0.151200  1
  C  C194  1  0.327500  0.929100  -0.020300  1
  C  C195  1  0.353100  1.008400  -0.111100  1
  C  C196  1  0.603700  1.089700  -0.275400  1
  C  C197  1  1.006400  0.960200  -0.253600  1
  C  C198  1  1.145000  0.877000  -0.190300  1
  C  C199  1  0.261700  0.908600  0.021600  1
  C  C200  1  0.290900  0.987800  -0.069700  1
  C  C201  1  1.105700  0.931100  -0.242100  1
  C  C202  1  0.168200  0.943600  0.015900  1
  C  C203  1  0.191500  1.023200  -0.073700  1
  C  C204  1  0.600200  1.141900  -0.419100  1
  C  C205  1  0.622300  1.253300  -0.290400  1
  C  C206  1  0.404500  1.178200  -0.352900  1
  C  C207  1  0.132100  1.001500  -0.032800  1
  C  C208  1  0.609800  1.061900  -0.438300  1
  C  C209  1  0.592600  1.286500  -0.229800  1
  C  C210  1  0.351600  1.144900  -0.302900  1
  C  C211  1  0.501500  1.022400  -0.452800  1
  C  C212  1  0.652100  1.054000  -0.499700  1
  C  C213  1  0.641100  1.361600  -0.211200  1
  C  C214  1  0.624500  1.238100  -0.164900  1
  C  C215  1  0.323600  1.067500  -0.320000  1
  C  C216  1  0.252600  1.188400  -0.302000  1
  H  H217  1  0.873700  0.908000  0.499400  1
  H  H218  1  0.981200  0.907500  0.564700  1
  H  H219  1  0.803700  0.894100  0.621100  1
  H  H220  1  0.716000  0.863900  0.553500  1
  H  H221  1  1.040400  0.786600  0.658900  1
  H  H222  1  0.950800  0.802700  0.695200  1
  H  H223  1  0.947700  0.813800  0.445600  1
  H  H224  1  0.759700  0.809100  0.688900  1
  H  H225  1  0.891000  0.676700  0.664500  1
  H  H226  1  1.129300  0.789500  0.486500  1
  H  H227  1  1.073900  0.765700  0.543700  1
  H  H228  1  1.142000  0.839700  0.553700  1
  H  H229  1  0.961000  0.939700  0.415600  1
  H  H230  1  1.063900  0.896000  0.409900  1
  H  H231  1  1.074000  0.946800  0.476300  1
  H  H232  1  0.657400  0.921200  0.663000  1
  H  H233  1  0.597200  0.856100  0.688600  1
  H  H234  1  0.564000  0.876500  0.607400  1
  H  H235  1  0.598800  0.755700  0.567500  1
  H  H236  1  0.615900  0.728400  0.645700  1
  H  H237  1  0.705800  0.712100  0.608900  1
  H  H238  1  1.013700  0.632300  0.770000  1
  H  H239  1  0.976900  0.713100  0.782300  1
  H  H240  1  1.092500  0.699900  0.772800  1
  H  H241  1  1.023800  0.595800  0.652500  1
  H  H242  1  1.103900  0.662300  0.654200  1
  H  H243  1  0.996000  0.653400  0.589600  1
  H  H244  1  0.611400  0.656600  0.481400  1
  H  H245  1  0.944800  0.675500  0.415300  1
  H  H246  1  0.490100  0.467800  0.319100  1
  H  H247  1  0.813500  0.495000  0.244900  1
  H  H248  1  0.447400  0.644000  0.517600  1
  H  H249  1  1.112600  0.683400  0.382900  1
  H  H250  1  0.328900  0.452800  0.356500  1
  H  H251  1  0.980800  0.504100  0.210900  1
  H  H252  1  1.214800  0.642800  0.317100  1
  H  H253  1  0.284200  0.630300  0.554100  1
  H  H254  1  1.149300  0.552800  0.230800  1
  H  H255  1  0.126200  0.570700  0.544600  1
  H  H256  1  0.166800  0.437600  0.394500  1
  H  H257  1  0.671300  0.335100  0.087800  1
  H  H258  1  0.548800  0.334400  0.039700  1
  H  H259  1  0.610400  0.208800  0.172900  1
  H  H260  1  0.700600  0.256900  0.226400  1
  H  H261  1  0.369300  0.342900  0.100300  1
  H  H262  1  0.387900  0.269000  0.143800  1
  H  H263  1  0.065800  0.474800  0.463200  1
  H  H264  1  0.662500  0.462200  0.102900  1
  H  H265  1  0.512500  0.207900  0.254900  1
  H  H266  1  0.404800  0.353200  0.245100  1
  H  H267  1  0.446400  0.452200  0.010000  1
  H  H268  1  0.508500  0.527900  0.032600  1
  H  H269  1  0.480400  0.478100  0.089800  1
  H  H270  1  0.721800  0.421300  0.010700  1
  H  H271  1  0.660900  0.497800  -0.008400  1
  H  H272  1  0.600900  0.424000  -0.041300  1
  H  H273  1  0.619700  0.107200  0.247100  1
  H  H274  1  0.615300  0.117000  0.325100  1
  H  H275  1  0.719900  0.142300  0.306100  1
  H  H276  1  0.702800  0.268400  0.351300  1
  H  H277  1  0.601700  0.238800  0.372100  1
  H  H278  1  0.589300  0.309500  0.323600  1
  H  H279  1  0.278000  0.436500  0.131200  1
  H  H280  1  0.389700  0.460800  0.186900  1
  H  H281  1  0.284500  0.451400  0.210700  1
  H  H282  1  0.202200  0.308300  0.150400  1
  H  H283  1  0.217300  0.336100  0.228200  1
  H  H284  1  0.274600  0.262500  0.216000  1
  H  H285  1  0.126300  0.408000  0.000600  1
  H  H286  1  0.018800  0.407500  -0.064700  1
  H  H287  1  0.196300  0.394100  -0.121100  1
  H  H288  1  0.284000  0.363900  -0.053500  1
  H  H289  1  -0.040400  0.286600  -0.158900  1
  H  H290  1  0.049200  0.302700  -0.195200  1
  H  H291  1  0.052300  0.313800  0.054400  1
  H  H292  1  0.240300  0.309100  -0.188900  1
  H  H293  1  0.109000  0.176700  -0.164500  1
  H  H294  1  -0.129300  0.289500  0.013500  1
  H  H295  1  -0.073900  0.265700  -0.043700  1
  H  H296  1  -0.142000  0.339700  -0.053700  1
  H  H297  1  0.039000  0.439700  0.084400  1
  H  H298  1  -0.063900  0.396000  0.090100  1
  H  H299  1  -0.074000  0.446800  0.023700  1
  H  H300  1  0.342600  0.421200  -0.163000  1
  H  H301  1  0.402800  0.356100  -0.188600  1
  H  H302  1  0.436000  0.376500  -0.107400  1
  H  H303  1  0.401200  0.255700  -0.067500  1
  H  H304  1  0.384100  0.228400  -0.145700  1
  H  H305  1  0.294200  0.212100  -0.108900  1
  H  H306  1  -0.013700  0.132300  -0.270000  1
  H  H307  1  0.023100  0.213100  -0.282300  1
  H  H308  1  -0.092500  0.199900  -0.272800  1
  H  H309  1  -0.023800  0.095800  -0.152500  1
  H  H310  1  -0.103900  0.162300  -0.154200  1
  H  H311  1  0.004000  0.153400  -0.089600  1
  H  H312  1  0.388600  0.156600  0.018600  1
  H  H313  1  0.055200  0.175500  0.084700  1
  H  H314  1  0.509900  -0.032200  0.180900  1
  H  H315  1  0.186500  -0.005000  0.255100  1
  H  H316  1  0.552600  0.144000  -0.017600  1
  H  H317  1  -0.112600  0.183400  0.117100  1
  H  H318  1  0.671100  -0.047200  0.143500  1
  H  H319  1  0.019200  0.004100  0.289100  1
  H  H320  1  -0.214800  0.142800  0.182900  1
  H  H321  1  0.715800  0.130300  -0.054100  1
  H  H322  1  -0.149300  0.052800  0.269200  1
  H  H323  1  0.873800  0.070700  -0.044600  1
  H  H324  1  0.833200  -0.062400  0.105500  1
  H  H325  1  0.328700  -0.164900  0.412200  1
  H  H326  1  0.451200  -0.165600  0.460300  1
  H  H327  1  0.389600  -0.291200  0.327100  1
  H  H328  1  0.299400  -0.243100  0.273600  1
  H  H329  1  0.630700  -0.157100  0.399700  1
  H  H330  1  0.612100  -0.231000  0.356200  1
  H  H331  1  0.934200  -0.025200  0.036800  1
  H  H332  1  0.337500  -0.037800  0.397100  1
  H  H333  1  0.487500  -0.292100  0.245100  1
  H  H334  1  0.595200  -0.146800  0.254900  1
  H  H335  1  0.553600  -0.047800  0.490000  1
  H  H336  1  0.491500  0.027900  0.467400  1
  H  H337  1  0.519600  -0.021900  0.410200  1
  H  H338  1  0.278200  -0.078700  0.489300  1
  H  H339  1  0.339100  -0.002200  0.508400  1
  H  H340  1  0.399100  -0.076000  0.541300  1
  H  H341  1  0.380300  -0.392800  0.252900  1
  H  H342  1  0.384700  -0.383000  0.174900  1
  H  H343  1  0.280100  -0.357700  0.193900  1
  H  H344  1  0.297200  -0.231600  0.148700  1
  H  H345  1  0.398300  -0.261200  0.127900  1
  H  H346  1  0.410700  -0.190500  0.176400  1
  H  H347  1  0.722000  -0.063500  0.368800  1
  H  H348  1  0.610300  -0.039200  0.313100  1
  H  H349  1  0.715500  -0.048600  0.289300  1
  H  H350  1  0.797800  -0.191700  0.349600  1
  H  H351  1  0.782700  -0.163900  0.271800  1
  H  H352  1  0.725400  -0.237500  0.284000  1
  H  H353  1  0.126300  0.092000  0.500600  1
  H  H354  1  0.018800  0.092500  0.435300  1
  H  H355  1  0.196300  0.105900  0.378900  1
  H  H356  1  0.284000  0.136100  0.446500  1
  H  H357  1  -0.040400  0.213400  0.341100  1
  H  H358  1  0.049200  0.197300  0.304800  1
  H  H359  1  0.052300  0.186200  0.554400  1
  H  H360  1  0.240300  0.190900  0.311100  1
  H  H361  1  0.109000  0.323300  0.335500  1
  H  H362  1  -0.129300  0.210500  0.513500  1
  H  H363  1  -0.073900  0.234300  0.456300  1
  H  H364  1  -0.142000  0.160300  0.446300  1
  H  H365  1  0.039000  0.060300  0.584400  1
  H  H366  1  -0.063900  0.104000  0.590100  1
  H  H367  1  -0.074000  0.053200  0.523700  1
  H  H368  1  0.342600  0.078800  0.337000  1
  H  H369  1  0.402800  0.143900  0.311400  1
  H  H370  1  0.436000  0.123500  0.392600  1
  H  H371  1  0.401200  0.244300  0.432500  1
  H  H372  1  0.384100  0.271600  0.354300  1
  H  H373  1  0.294200  0.287900  0.391100  1
  H  H374  1  -0.013700  0.367700  0.230000  1
  H  H375  1  0.023100  0.286900  0.217700  1
  H  H376  1  -0.092500  0.300100  0.227200  1
  H  H377  1  -0.023800  0.404200  0.347500  1
  H  H378  1  -0.103900  0.337700  0.345800  1
  H  H379  1  0.004000  0.346600  0.410400  1
  H  H380  1  0.388600  0.343400  0.518600  1
  H  H381  1  0.055200  0.324500  0.584700  1
  H  H382  1  0.509900  0.532200  0.680900  1
  H  H383  1  0.186500  0.505000  0.755100  1
  H  H384  1  0.552600  0.356000  0.482400  1
  H  H385  1  -0.112600  0.316600  0.617100  1
  H  H386  1  0.671100  0.547200  0.643500  1
  H  H387  1  0.019200  0.495900  0.789100  1
  H  H388  1  -0.214800  0.357200  0.682900  1
  H  H389  1  0.715800  0.369700  0.445900  1
  H  H390  1  -0.149300  0.447200  0.769200  1
  H  H391  1  0.873800  0.429300  0.455400  1
  H  H392  1  0.833200  0.562400  0.605500  1
  H  H393  1  0.328700  0.664900  0.912200  1
  H  H394  1  0.451200  0.665600  0.960300  1
  H  H395  1  0.389600  0.791200  0.827100  1
  H  H396  1  0.299400  0.743100  0.773600  1
  H  H397  1  0.630700  0.657100  0.899700  1
  H  H398  1  0.612100  0.731000  0.856200  1
  H  H399  1  0.934200  0.525200  0.536800  1
  H  H400  1  0.337500  0.537800  0.897100  1
  H  H401  1  0.487500  0.792100  0.745100  1
  H  H402  1  0.595200  0.646800  0.754900  1
  H  H403  1  0.553600  0.547800  0.990000  1
  H  H404  1  0.491500  0.472100  0.967400  1
  H  H405  1  0.519600  0.521900  0.910200  1
  H  H406  1  0.278200  0.578700  0.989300  1
  H  H407  1  0.339100  0.502200  1.008400  1
  H  H408  1  0.399100  0.576000  1.041300  1
  H  H409  1  0.380300  0.892800  0.752900  1
  H  H410  1  0.384700  0.883000  0.674900  1
  H  H411  1  0.280100  0.857700  0.693900  1
  H  H412  1  0.297200  0.731600  0.648700  1
  H  H413  1  0.398300  0.761200  0.627900  1
  H  H414  1  0.410700  0.690500  0.676400  1
  H  H415  1  0.722000  0.563500  0.868800  1
  H  H416  1  0.610300  0.539200  0.813100  1
  H  H417  1  0.715500  0.548600  0.789300  1
  H  H418  1  0.797800  0.691700  0.849600  1
  H  H419  1  0.782700  0.663900  0.771800  1
  H  H420  1  0.725400  0.737500  0.784000  1
  H  H421  1  0.873700  0.592000  -0.000600  1
  H  H422  1  0.981200  0.592500  0.064700  1
  H  H423  1  0.803700  0.605900  0.121100  1
  H  H424  1  0.716000  0.636100  0.053500  1
  H  H425  1  1.040400  0.713400  0.158900  1
  H  H426  1  0.950800  0.697300  0.195200  1
  H  H427  1  0.947700  0.686200  -0.054400  1
  H  H428  1  0.759700  0.690900  0.188900  1
  H  H429  1  0.891000  0.823300  0.164500  1
  H  H430  1  1.129300  0.710500  -0.013500  1
  H  H431  1  1.073900  0.734300  0.043700  1
  H  H432  1  1.142000  0.660300  0.053700  1
  H  H433  1  0.961000  0.560300  -0.084400  1
  H  H434  1  1.063900  0.604000  -0.090100  1
  H  H435  1  1.074000  0.553200  -0.023700  1
  H  H436  1  0.657400  0.578800  0.163000  1
  H  H437  1  0.597200  0.643900  0.188600  1
  H  H438  1  0.564000  0.623500  0.107400  1
  H  H439  1  0.598800  0.744300  0.067500  1
  H  H440  1  0.615900  0.771600  0.145700  1
  H  H441  1  0.705800  0.787900  0.108900  1
  H  H442  1  1.013700  0.867700  0.270000  1
  H  H443  1  0.976900  0.786900  0.282300  1
  H  H444  1  1.092500  0.800100  0.272800  1
  H  H445  1  1.023800  0.904200  0.152500  1
  H  H446  1  1.103900  0.837700  0.154200  1
  H  H447  1  0.996000  0.846600  0.089600  1
  H  H448  1  0.611400  0.843400  -0.018600  1
  H  H449  1  0.944800  0.824500  -0.084700  1
  H  H450  1  0.490100  1.032200  -0.180900  1
  H  H451  1  0.813500  1.005000  -0.255100  1
  H  H452  1  0.447400  0.856000  0.017600  1
  H  H453  1  1.112600  0.816600  -0.117100  1
  H  H454  1  0.328900  1.047200  -0.143500  1
  H  H455  1  0.980800  0.995900  -0.289100  1
  H  H456  1  1.214800  0.857200  -0.182900  1
  H  H457  1  0.284200  0.869700  0.054100  1
  H  H458  1  1.149300  0.947200  -0.269200  1
  H  H459  1  0.126200  0.929300  0.044600  1
  H  H460  1  0.166800  1.062400  -0.105500  1
  H  H461  1  0.671300  1.164900  -0.412200  1
  H  H462  1  0.548800  1.165600  -0.460300  1
  H  H463  1  0.610400  1.291200  -0.327100  1
  H  H464  1  0.700600  1.243100  -0.273600  1
  H  H465  1  0.369300  1.157100  -0.399700  1
  H  H466  1  0.387900  1.231000  -0.356200  1
  H  H467  1  0.065800  1.025200  -0.036800  1
  H  H468  1  0.662500  1.037800  -0.397100  1
  H  H469  1  0.512500  1.292100  -0.245100  1
  H  H470  1  0.404800  1.146800  -0.254900  1
  H  H471  1  0.446400  1.047800  -0.490000  1
  H  H472  1  0.508500  0.972100  -0.467400  1
  H  H473  1  0.480400  1.021900  -0.410200  1
  H  H474  1  0.721800  1.078700  -0.489300  1
  H  H475  1  0.660900  1.002200  -0.508400  1
  H  H476  1  0.600900  1.076000  -0.541300  1
  H  H477  1  0.619700  1.392800  -0.252900  1
  H  H478  1  0.615300  1.383000  -0.174900  1
  H  H479  1  0.719900  1.357700  -0.193900  1
  H  H480  1  0.702800  1.231600  -0.148700  1
  H  H481  1  0.601700  1.261200  -0.127900  1
  H  H482  1  0.589300  1.190500  -0.176400  1
  H  H483  1  0.278000  1.063500  -0.368800  1
  H  H484  1  0.389700  1.039200  -0.313100  1
  H  H485  1  0.284500  1.048600  -0.289300  1
  H  H486  1  0.202200  1.191700  -0.349600  1
  H  H487  1  0.217300  1.163900  -0.271800  1
  H  H488  1  0.274600  1.237500  -0.284000  1
  Si  Si489  1  0.871900  0.805820  0.571890  1.0
  Si  Si490  1  0.552890  0.331870  0.166540  1
  Si  Si491  1  0.128100  0.305820  -0.071890  1.0
  Si  Si492  1  0.447110  -0.168130  0.333460  1
  Si  Si493  1  0.128100  0.194180  0.428110  1.0
  Si  Si494  1  0.447110  0.668130  0.833460  1
  Si  Si495  1  0.871900  0.694180  0.071890  1.0
  Si  Si496  1  0.552890  1.168130  -0.333460  1
