# generated using pymatgen
data_Si(HC)14
_symmetry_space_group_name_H-M   'P 1'
_cell_length_a   11.32500000
_cell_length_b   11.48780000
_cell_length_c   19.14900000
_cell_angle_alpha   90.00000000
_cell_angle_beta   101.67640000
_cell_angle_gamma   90.00000000
_symmetry_Int_Tables_number   1
_chemical_formula_structural   Si(HC)14
_chemical_formula_sum   'Si8 H112 C112'
_cell_volume   2439.71841542
_cell_formula_units_Z   8
loop_
 _symmetry_equiv_pos_site_id
 _symmetry_equiv_pos_as_xyz
  1  'x, y, z'
loop_
 _atom_site_type_symbol
 _atom_site_label
 _atom_site_symmetry_multiplicity
 _atom_site_fract_x
 _atom_site_fract_y
 _atom_site_fract_z
 _atom_site_occupancy
  C  C1  1  0.297320  0.180540  0.460760  1
  C  C2  1  0.133570  -0.025870  0.455770  1
  C  C3  1  0.167030  0.151370  0.578800  1
  C  C4  1  0.372870  -0.014050  0.563780  1
  C  C5  1  0.337680  0.257500  0.429730  1
  C  C6  1  0.391590  0.349020  0.396300  1
  C  C7  1  0.507670  0.389810  0.430280  1
  C  C8  1  0.331160  0.396240  0.331080  1
  C  C9  1  0.569670  0.342790  0.495230  1
  C  C10  1  0.563970  0.481330  0.397110  1
  C  C11  1  0.387410  0.487380  0.297840  1
  C  C12  1  0.214810  0.356230  0.296430  1
  C  C13  1  0.683340  0.380510  0.527860  1
  C  C14  1  0.679030  0.519970  0.430940  1
  C  C15  1  0.502550  0.528190  0.330670  1
  C  C16  1  0.323680  0.533050  0.231430  1
  C  C17  1  0.157680  0.401620  0.233340  1
  C  C18  1  0.747390  0.331800  0.593480  1
  C  C19  1  0.739930  0.472230  0.494750  1
  C  C20  1  0.560760  0.615380  0.295860  1
  C  C21  1  0.212630  0.492440  0.200400  1
  C  C22  1  0.860100  0.368700  0.623240  1
  C  C23  1  0.858270  0.508550  0.528510  1
  C  C24  1  0.611840  0.685390  0.265130  1
  C  C25  1  0.916390  0.457870  0.589660  1
  C  C26  1  0.613490  0.751780  0.115980  1
  C  C27  1  0.664500  0.935560  0.234950  1
  C  C28  1  0.850930  0.748390  0.227500  1
  C  C29  1  0.202680  -0.319460  0.039240  1
  C  C30  1  0.366430  -0.525870  0.044230  1
  C  C31  1  0.332970  -0.348630  -0.078800  1
  C  C32  1  0.127130  -0.514050  -0.063780  1
  C  C33  1  0.162320  -0.242500  0.070270  1
  C  C34  1  0.108410  -0.150980  0.103700  1
  C  C35  1  -0.007670  -0.110190  0.069720  1
  C  C36  1  0.168840  -0.103760  0.168920  1
  C  C37  1  -0.069670  -0.157210  0.004770  1
  C  C38  1  -0.063970  -0.018670  0.102890  1
  C  C39  1  0.112590  -0.012620  0.202160  1
  C  C40  1  0.285190  -0.143770  0.203570  1
  C  C41  1  -0.183340  -0.119490  -0.027860  1
  C  C42  1  -0.179030  0.019970  0.069060  1
  C  C43  1  -0.002550  0.028190  0.169330  1
  C  C44  1  0.176320  0.033050  0.268570  1
  C  C45  1  0.342320  -0.098380  0.266660  1
  C  C46  1  -0.247390  -0.168200  -0.093480  1
  C  C47  1  -0.239930  -0.027770  0.005250  1
  C  C48  1  -0.060760  0.115380  0.204140  1
  C  C49  1  0.287370  -0.007560  0.299600  1
  C  C50  1  -0.360100  -0.131300  -0.123240  1
  C  C51  1  -0.358270  0.008550  -0.028510  1
  C  C52  1  -0.111840  0.185390  0.234870  1
  C  C53  1  -0.416390  -0.042130  -0.089660  1
  C  C54  1  -0.113490  0.251780  0.384020  1
  C  C55  1  -0.164500  0.435560  0.265050  1
  C  C56  1  -0.350930  0.248390  0.272500  1
  C  C57  1  0.702680  0.819460  0.539240  1
  C  C58  1  0.866430  1.025870  0.544230  1
  C  C59  1  0.832970  0.848630  0.421200  1
  C  C60  1  0.627130  1.014050  0.436220  1
  C  C61  1  0.662320  0.742500  0.570270  1
  C  C62  1  0.608410  0.650980  0.603700  1
  C  C63  1  0.492330  0.610190  0.569720  1
  C  C64  1  0.668840  0.603760  0.668920  1
  C  C65  1  0.430330  0.657210  0.504770  1
  C  C66  1  0.436030  0.518670  0.602890  1
  C  C67  1  0.612590  0.512620  0.702160  1
  C  C68  1  0.785190  0.643770  0.703570  1
  C  C69  1  0.316660  0.619490  0.472140  1
  C  C70  1  0.320970  0.480030  0.569060  1
  C  C71  1  0.497450  0.471810  0.669330  1
  C  C72  1  0.676320  0.466950  0.768570  1
  C  C73  1  0.842320  0.598380  0.766660  1
  C  C74  1  0.252610  0.668200  0.406520  1
  C  C75  1  0.260070  0.527770  0.505250  1
  C  C76  1  0.439240  0.384620  0.704140  1
  C  C77  1  0.787370  0.507560  0.799600  1
  C  C78  1  0.139900  0.631300  0.376760  1
  C  C79  1  0.141730  0.491450  0.471490  1
  C  C80  1  0.388160  0.314610  0.734870  1
  C  C81  1  0.083610  0.542130  0.410340  1
  C  C82  1  0.386510  0.248220  0.884020  1
  C  C83  1  0.335500  0.064440  0.765050  1
  C  C84  1  0.149070  0.251610  0.772500  1
  C  C85  1  -0.202680  0.319460  -0.039240  1
  C  C86  1  -0.366430  0.525870  -0.044230  1
  C  C87  1  -0.332970  0.348630  0.078800  1
  C  C88  1  -0.127130  0.514050  0.063780  1
  C  C89  1  -0.162320  0.242500  -0.070270  1
  C  C90  1  -0.108410  0.150980  -0.103700  1
  C  C91  1  0.007670  0.110190  -0.069720  1
  C  C92  1  -0.168840  0.103760  -0.168920  1
  C  C93  1  0.069670  0.157210  -0.004770  1
  C  C94  1  0.063970  0.018670  -0.102890  1
  C  C95  1  -0.112590  0.012620  -0.202160  1
  C  C96  1  -0.285190  0.143770  -0.203570  1
  C  C97  1  0.183340  0.119490  0.027860  1
  C  C98  1  0.179030  -0.019970  -0.069060  1
  C  C99  1  0.002550  -0.028190  -0.169330  1
  C  C100  1  -0.176320  -0.033050  -0.268570  1
  C  C101  1  -0.342320  0.098380  -0.266660  1
  C  C102  1  0.247390  0.168200  0.093480  1
  C  C103  1  0.239930  0.027770  -0.005250  1
  C  C104  1  0.060760  -0.115380  -0.204140  1
  C  C105  1  -0.287370  0.007560  -0.299600  1
  C  C106  1  0.360100  0.131300  0.123240  1
  C  C107  1  0.358270  -0.008550  0.028510  1
  C  C108  1  0.111840  -0.185390  -0.234870  1
  C  C109  1  0.416390  0.042130  0.089660  1
  C  C110  1  0.113490  -0.251780  -0.384020  1
  C  C111  1  0.164500  -0.435560  -0.265050  1
  C  C112  1  0.350930  -0.248390  -0.272500  1
  H  H113  1  0.068200  0.021200  0.428300  1
  H  H114  1  0.099900  -0.082800  0.484500  1
  H  H115  1  0.175700  -0.066700  0.423100  1
  H  H116  1  0.226500  0.201200  0.609200  1
  H  H117  1  0.133600  0.096100  0.608600  1
  H  H118  1  0.102000  0.199600  0.552000  1
  H  H119  1  0.412500  -0.053300  0.529300  1
  H  H120  1  0.345400  -0.072200  0.594400  1
  H  H121  1  0.430100  0.039000  0.593100  1
  H  H122  1  0.532200  0.283200  0.517400  1
  H  H123  1  0.176600  0.296500  0.318100  1
  H  H124  1  0.716300  0.580600  0.409500  1
  H  H125  1  0.359500  0.592900  0.208500  1
  H  H126  1  0.080700  0.372800  0.210900  1
  H  H127  1  0.710500  0.272800  0.616500  1
  H  H128  1  0.171500  0.524800  0.156500  1
  H  H129  1  0.901700  0.335100  0.666667  1
  H  H130  1  0.896800  0.569100  0.507800  1
  H  H131  1  0.995900  0.482100  0.610600  1
  H  H132  1  0.622400  0.669100  0.105600  1
  H  H133  1  0.651900  0.799000  0.084200  1
  H  H134  1  0.527600  0.771500  0.108500  1
  H  H135  1  0.578000  0.951900  0.228500  1
  H  H136  1  0.700500  0.987600  0.204500  1
  H  H137  1  0.703200  0.948300  0.285000  1
  H  H138  1  0.886000  0.761800  0.278000  1
  H  H139  1  0.890600  0.799000  0.198000  1
  H  H140  1  0.862600  0.666800  0.215500  1
  H  H141  1  0.431800  -0.478800  0.071700  1
  H  H142  1  0.400100  -0.582800  0.015500  1
  H  H143  1  0.324300  -0.566700  0.076900  1
  H  H144  1  0.273500  -0.298800  -0.109200  1
  H  H145  1  0.366400  -0.403900  -0.108600  1
  H  H146  1  0.398000  -0.300400  -0.052000  1
  H  H147  1  0.087500  -0.553300  -0.029300  1
  H  H148  1  0.154600  -0.572200  -0.094400  1
  H  H149  1  0.069900  -0.461000  -0.093100  1
  H  H150  1  -0.032200  -0.216800  -0.017400  1
  H  H151  1  0.323400  -0.203500  0.181900  1
  H  H152  1  -0.216300  0.080600  0.090500  1
  H  H153  1  0.140500  0.092900  0.291500  1
  H  H154  1  0.419300  -0.127200  0.289100  1
  H  H155  1  -0.210500  -0.227200  -0.116500  1
  H  H156  1  0.328500  0.024800  0.343500  1
  H  H157  1  -0.401700  -0.164900  -0.166667  1
  H  H158  1  -0.396800  0.069100  -0.007800  1
  H  H159  1  -0.495900  -0.017900  -0.110600  1
  H  H160  1  -0.122400  0.169100  0.394400  1
  H  H161  1  -0.151900  0.299000  0.415800  1
  H  H162  1  -0.027600  0.271500  0.391500  1
  H  H163  1  -0.078000  0.451900  0.271500  1
  H  H164  1  -0.200500  0.487600  0.295500  1
  H  H165  1  -0.203200  0.448300  0.215000  1
  H  H166  1  -0.386000  0.261800  0.222000  1
  H  H167  1  -0.390600  0.299000  0.302000  1
  H  H168  1  -0.362600  0.166800  0.284500  1
  H  H169  1  0.931800  0.978800  0.571700  1
  H  H170  1  0.900100  1.082800  0.515500  1
  H  H171  1  0.824300  1.066700  0.576900  1
  H  H172  1  0.773500  0.798800  0.390800  1
  H  H173  1  0.866400  0.903900  0.391400  1
  H  H174  1  0.898000  0.800400  0.448000  1
  H  H175  1  0.587500  1.053300  0.470700  1
  H  H176  1  0.654600  1.072200  0.405600  1
  H  H177  1  0.569900  0.961000  0.406900  1
  H  H178  1  0.467800  0.716800  0.482600  1
  H  H179  1  0.823400  0.703500  0.681900  1
  H  H180  1  0.283700  0.419400  0.590500  1
  H  H181  1  0.640500  0.407100  0.791500  1
  H  H182  1  0.919300  0.627200  0.789100  1
  H  H183  1  0.289500  0.727200  0.383500  1
  H  H184  1  0.828500  0.475200  0.843500  1
  H  H185  1  0.098300  0.664900  0.333333  1
  H  H186  1  0.103200  0.430900  0.492200  1
  H  H187  1  0.004100  0.517900  0.389400  1
  H  H188  1  0.377600  0.330900  0.894400  1
  H  H189  1  0.348100  0.201000  0.915800  1
  H  H190  1  0.472400  0.228500  0.891500  1
  H  H191  1  0.422000  0.048100  0.771500  1
  H  H192  1  0.299500  0.012400  0.795500  1
  H  H193  1  0.296800  0.051700  0.715000  1
  H  H194  1  0.114000  0.238200  0.722000  1
  H  H195  1  0.109400  0.201000  0.802000  1
  H  H196  1  0.137400  0.333200  0.784500  1
  H  H197  1  -0.431800  0.478800  -0.071700  1
  H  H198  1  -0.400100  0.582800  -0.015500  1
  H  H199  1  -0.324300  0.566700  -0.076900  1
  H  H200  1  -0.273500  0.298800  0.109200  1
  H  H201  1  -0.366400  0.403900  0.108600  1
  H  H202  1  -0.398000  0.300400  0.052000  1
  H  H203  1  -0.087500  0.553300  0.029300  1
  H  H204  1  -0.154600  0.572200  0.094400  1
  H  H205  1  -0.069900  0.461000  0.093100  1
  H  H206  1  0.032200  0.216800  0.017400  1
  H  H207  1  -0.323400  0.203500  -0.181900  1
  H  H208  1  0.216300  -0.080600  -0.090500  1
  H  H209  1  -0.140500  -0.092900  -0.291500  1
  H  H210  1  -0.419300  0.127200  -0.289100  1
  H  H211  1  0.210500  0.227200  0.116500  1
  H  H212  1  -0.328500  -0.024800  -0.343500  1
  H  H213  1  0.401700  0.164900  0.166667  1
  H  H214  1  0.396800  -0.069100  0.007800  1
  H  H215  1  0.495900  0.017900  0.110600  1
  H  H216  1  0.122400  -0.169100  -0.394400  1
  H  H217  1  0.151900  -0.299000  -0.415800  1
  H  H218  1  0.027600  -0.271500  -0.391500  1
  H  H219  1  0.078000  -0.451900  -0.271500  1
  H  H220  1  0.200500  -0.487600  -0.295500  1
  H  H221  1  0.203200  -0.448300  -0.215000  1
  H  H222  1  0.386000  -0.261800  -0.222000  1
  H  H223  1  0.390600  -0.299000  -0.302000  1
  H  H224  1  0.362600  -0.166800  -0.284500  1
  Si  Si225  1  0.241210  0.070080  0.515370  1.0
  Si  Si226  1  0.686720  0.781820  0.210250  1
  Si  Si227  1  0.258790  -0.429920  -0.015370  1.0
  Si  Si228  1  -0.186720  0.281820  0.289750  1
  Si  Si229  1  0.758790  0.929920  0.484630  1.0
  Si  Si230  1  0.313280  0.218180  0.789750  1
  Si  Si231  1  -0.258790  0.429920  0.015370  1.0
  Si  Si232  1  0.186720  -0.281820  -0.289750  1
