# generated using pymatgen
data_SiH26C20N
_symmetry_space_group_name_H-M   'P 1'
_cell_length_a   8.22270000
_cell_length_b   10.31790000
_cell_length_c   11.92390000
_cell_angle_alpha   105.14500000
_cell_angle_beta   102.77700000
_cell_angle_gamma   105.18400000
_symmetry_Int_Tables_number   1
_chemical_formula_structural   SiH26C20N
_chemical_formula_sum   'Si2 H52 C40 N2'
_cell_volume   895.71857476
_cell_formula_units_Z   2
loop_
 _symmetry_equiv_pos_site_id
 _symmetry_equiv_pos_as_xyz
  1  'x, y, z'
loop_
 _atom_site_type_symbol
 _atom_site_label
 _atom_site_symmetry_multiplicity
 _atom_site_fract_x
 _atom_site_fract_y
 _atom_site_fract_z
 _atom_site_occupancy
  C  C1  1  0.614290  0.264680  0.716010  1
  C  C2  1  0.519980  0.157550  0.913170  1
  C  C3  1  0.908550  0.276270  0.918570  1
  C  C4  1  0.640030  -0.020910  0.717560  1
  C  C5  1  0.586080  0.334230  0.651200  1
  C  C6  1  0.330380  0.059140  0.836920  1
  C  C7  1  0.521340  0.306530  0.981100  1
  C  C8  1  0.986830  0.211380  1.010580  1
  C  C9  1  1.037600  0.317600  0.848450  1
  C  C10  1  0.661400  -0.120370  0.791580  1
  C  C11  1  0.752000  -0.028310  0.630530  1
  C  C12  1  0.546750  0.416080  0.575450  1
  C  C13  1  0.620110  0.431250  0.482220  1
  C  C14  1  0.424120  0.487450  0.592830  1
  C  C15  1  0.575880  0.512550  0.407170  1
  C  C16  1  0.379890  0.568750  0.517780  1
  C  C17  1  0.327870  0.496000  0.677530  1
  C  C18  1  0.453250  0.583920  0.424550  1
  C  C19  1  0.672130  0.504000  0.322470  1
  C  C20  1  0.830220  0.293660  0.487400  1
  C  C21  1  0.773980  0.421230  0.344900  1
  C  C22  1  0.226020  0.578770  0.655100  1
  C  C23  1  0.413920  0.665770  0.348800  1
  C  C24  1  0.949790  0.254100  0.437680  1
  C  C25  1  0.899600  0.377700  0.293590  1
  C  C26  1  0.169780  0.706340  0.512600  1
  C  C27  1  0.100400  0.622300  0.706410  1
  C  C28  1  0.385710  0.735320  0.283990  1
  C  C29  1  0.985970  0.297580  0.338600  1
  C  C30  1  0.050210  0.745900  0.562320  1
  C  C31  1  0.014030  0.702420  0.661400  1
  C  C32  1  0.480020  0.842450  0.086830  1
  C  C33  1  0.091450  0.723730  0.081430  1
  C  C34  1  0.359970  1.020910  0.282440  1
  C  C35  1  0.669620  0.940860  0.163080  1
  C  C36  1  0.478660  0.693470  0.018900  1
  C  C37  1  0.013170  0.788620  -0.010580  1
  C  C38  1  -0.037600  0.682400  0.151550  1
  C  C39  1  0.338600  1.120370  0.208420  1
  C  C40  1  0.248000  1.028310  0.369470  1
  H  H41  1  0.563603  0.116454  0.976184  1
  H  H42  1  0.901799  0.367910  0.968563  1
  H  H43  1  0.513546  -0.060784  0.664513  1
  H  H44  1  0.253359  0.060517  0.888971  1
  H  H45  1  0.329563  -0.038446  0.802878  1
  H  H46  1  0.286988  0.092445  0.770170  1
  H  H47  1  0.438705  0.297915  1.028887  1
  H  H48  1  0.485012  0.351823  0.921772  1
  H  H49  1  0.641174  0.364992  1.036011  1
  H  H50  1  1.097893  0.282063  1.069682  1
  H  H51  1  1.010169  0.127002  0.966954  1
  H  H52  1  0.902333  0.183707  1.053755  1
  H  H53  1  1.149721  0.388341  0.906125  1
  H  H54  1  0.986128  0.358320  0.789809  1
  H  H55  1  1.059487  0.232559  0.804581  1
  H  H56  1  0.625182  -0.218483  0.735566  1
  H  H57  1  0.586832  -0.116119  0.845269  1
  H  H58  1  0.785703  -0.089934  0.841101  1
  H  H59  1  0.712643  -0.126173  0.573388  1
  H  H60  1  0.877019  0.000157  0.677823  1
  H  H61  1  0.737827  0.036364  0.584701  1
  H  H62  1  0.332574  0.452593  0.738756  1
  H  H63  1  0.667426  0.547407  0.261244  1
  H  H64  1  0.806575  0.264997  0.553342  1
  H  H65  1  1.009776  0.197466  0.468471  1
  H  H66  1  0.923410  0.404937  0.227090  1
  H  H67  1  0.193425  0.735003  0.446658  1
  H  H68  1  0.076590  0.595063  0.772910  1
  H  H69  1  1.070722  0.270323  0.304146  1
  H  H70  1  -0.009776  0.802534  0.531529  1
  H  H71  1  -0.070722  0.729677  0.695854  1
  H  H72  1  0.436397  0.883546  0.023816  1
  H  H73  1  0.098201  0.632090  0.031437  1
  H  H74  1  0.486454  1.060784  0.335487  1
  H  H75  1  0.746641  0.939483  0.111029  1
  H  H76  1  0.670437  1.038446  0.197122  1
  H  H77  1  0.713012  0.907555  0.229830  1
  H  H78  1  0.561295  0.702085  -0.028887  1
  H  H79  1  0.514988  0.648177  0.078228  1
  H  H80  1  0.358826  0.635008  -0.036011  1
  H  H81  1  -0.097893  0.717937  -0.069682  1
  H  H82  1  -0.010169  0.872998  0.033046  1
  H  H83  1  0.097667  0.816293  -0.053755  1
  H  H84  1  -0.149721  0.611659  0.093875  1
  H  H85  1  0.013872  0.641680  0.210191  1
  H  H86  1  -0.059487  0.767441  0.195419  1
  H  H87  1  0.374818  1.218483  0.264434  1
  H  H88  1  0.413168  1.116119  0.154731  1
  H  H89  1  0.214297  1.089934  0.158899  1
  H  H90  1  0.287357  1.126173  0.426612  1
  H  H91  1  0.122981  0.999843  0.322177  1
  H  H92  1  0.262173  0.963636  0.415299  1
  N  N93  1  0.742180  0.375710  0.442640  1
  N  N94  1  0.257820  0.624290  0.557360  1
  Si  Si95  1  0.674220  0.165260  0.817430  1.0
  Si  Si96  1  0.325780  0.834740  0.182570  1
