# generated using pymatgen
data_SiH19C21S(OF3)2
_symmetry_space_group_name_H-M   'P 1'
_cell_length_a   6.33690000
_cell_length_b   10.97330000
_cell_length_c   16.85100000
_cell_angle_alpha   74.66500000
_cell_angle_beta   83.63700000
_cell_angle_gamma   76.38900000
_symmetry_Int_Tables_number   1
_chemical_formula_structural   SiH19C21S(OF3)2
_chemical_formula_sum   'Si2 H38 C42 S2 O4 F12'
_cell_volume   1096.83042677
_cell_formula_units_Z   2
loop_
 _symmetry_equiv_pos_site_id
 _symmetry_equiv_pos_as_xyz
  1  'x, y, z'
loop_
 _atom_site_type_symbol
 _atom_site_label
 _atom_site_symmetry_multiplicity
 _atom_site_fract_x
 _atom_site_fract_y
 _atom_site_fract_z
 _atom_site_occupancy
  C  C1  1  0.216000  0.741300  0.645040  1
  C  C2  1  -0.119700  0.765400  0.783200  1
  C  C3  1  0.242600  0.914600  0.755700  1
  C  C4  1  -0.110700  0.991200  0.629000  1
  C  C5  1  0.304300  0.669500  0.602930  1
  C  C6  1  0.007900  0.664900  0.851800  1
  C  C7  1  0.124100  1.003200  0.810800  1
  C  C8  1  -0.261500  0.953400  0.580400  1
  C  C9  1  0.403900  0.583600  0.551510  1
  C  C10  1  0.288800  0.580300  0.485350  1
  C  C11  1  0.613300  0.504700  0.567570  1
  C  C12  1  0.079400  0.658600  0.469430  1
  C  C13  1  0.386700  0.495300  0.432430  1
  C  C14  1  0.711200  0.419700  0.514650  1
  C  C15  1  0.728900  0.506400  0.634040  1
  C  C16  1  -0.026700  0.655200  0.404080  1
  C  C17  1  0.596100  0.416400  0.448490  1
  C  C18  1  0.271100  0.493600  0.365960  1
  C  C19  1  0.920600  0.341400  0.530570  1
  C  C20  1  0.930000  0.427100  0.649000  1
  C  C21  1  0.070000  0.572900  0.351000  1
  C  C22  1  0.695700  0.330500  0.397070  1
  C  C23  1  1.026700  0.344800  0.595920  1
  C  C24  1  1.079800  0.408500  0.711700  1
  C  C25  1  -0.079800  0.591500  0.288300  1
  C  C26  1  -0.269800  0.677700  0.296900  1
  C  C27  1  0.784000  0.258700  0.354960  1
  C  C28  1  1.269800  0.322300  0.703100  1
  C  C29  1  -0.458400  0.721700  0.248700  1
  C  C30  1  1.458400  0.278300  0.751300  1
  C  C31  1  1.119700  0.234600  0.216800  1
  C  C32  1  0.757400  0.085400  0.244300  1
  C  C33  1  1.110700  0.008800  0.371000  1
  C  C34  1  -0.595200  0.711500  0.126200  1
  C  C35  1  0.992100  0.335100  0.148200  1
  C  C36  1  0.875900  -0.003200  0.189200  1
  C  C37  1  1.261500  0.046600  0.419600  1
  C  C38  1  1.595200  0.288500  0.873800  1
  C  C39  1  -0.566300  0.827900  0.057900  1
  C  C40  1  -0.603100  0.593200  0.097500  1
  C  C41  1  1.566300  0.172100  0.942100  1
  C  C42  1  1.603100  0.406800  0.902500  1
  F  F43  1  -0.556800  0.926400  0.087600  1
  F  F44  1  -0.732100  0.867100  0.009000  1
  F  F45  1  -0.381600  0.804900  0.012300  1
  F  F46  1  -0.766600  0.615200  0.051200  1
  F  F47  1  -0.418900  0.554600  0.054600  1
  F  F48  1  -0.623400  0.497600  0.163070  1
  F  F49  1  1.556800  0.073600  0.912400  1
  F  F50  1  1.732100  0.132900  0.991000  1
  F  F51  1  1.381600  0.195100  0.987700  1
  F  F52  1  1.766600  0.384800  0.948800  1
  F  F53  1  1.418900  0.445400  0.945400  1
  F  F54  1  1.623400  0.502400  0.836930  1
  H  H55  1  -0.228500  0.827900  0.807700  1
  H  H56  1  -0.199400  0.721600  0.755900  1
  H  H57  1  0.340000  0.839200  0.789600  1
  H  H58  1  0.334200  0.962300  0.713000  1
  H  H59  1  -0.199200  1.053100  0.659400  1
  H  H60  1  -0.010400  1.037100  0.589500  1
  H  H61  1  0.125700  0.607900  0.827700  1
  H  H62  1  -0.089200  0.613500  0.887400  1
  H  H63  1  0.069500  0.708700  0.884500  1
  H  H64  1  0.027400  1.078300  0.777700  1
  H  H65  1  0.230900  1.032500  0.835000  1
  H  H66  1  0.038400  0.955500  0.854900  1
  H  H67  1  -0.176200  0.894100  0.548500  1
  H  H68  1  -0.340100  1.031200  0.542800  1
  H  H69  1  -0.365800  0.910700  0.618400  1
  H  H70  1  0.012200  0.713700  0.504300  1
  H  H71  1  0.666900  0.562800  0.668600  1
  H  H72  1  0.333100  0.437200  0.331400  1
  H  H73  1  0.987800  0.286300  0.495700  1
  H  H74  1  1.049300  0.452000  0.754800  1
  H  H75  1  -0.049300  0.548000  0.245200  1
  H  H76  1  1.228500  0.172100  0.192300  1
  H  H77  1  1.199400  0.278400  0.244100  1
  H  H78  1  0.660000  0.160800  0.210400  1
  H  H79  1  0.665800  0.037700  0.287000  1
  H  H80  1  1.199200  -0.053100  0.340600  1
  H  H81  1  1.010400  -0.037100  0.410500  1
  H  H82  1  -0.733000  0.735600  0.159000  1
  H  H83  1  0.874300  0.392100  0.172300  1
  H  H84  1  1.089200  0.386500  0.112600  1
  H  H85  1  0.930500  0.291300  0.115500  1
  H  H86  1  0.972600  -0.078300  0.222300  1
  H  H87  1  0.769100  -0.032500  0.165000  1
  H  H88  1  0.961600  0.044500  0.145100  1
  H  H89  1  1.176200  0.105900  0.451500  1
  H  H90  1  1.340100  -0.031200  0.457200  1
  H  H91  1  1.365800  0.089300  0.381600  1
  H  H92  1  1.733000  0.264400  0.841000  1
  O  O93  1  -0.626500  0.788300  0.264700  1
  O  O94  1  -0.419500  0.676300  0.178400  1
  O  O95  1  1.626500  0.211700  0.735300  1
  O  O96  1  1.419500  0.323700  0.821600  1
  S  S97  1  -0.287130  0.749570  0.378290  1
  S  S98  1  1.287130  0.250430  0.621710  1
  Si  Si99  1  0.055090  0.855580  0.704200  1.0
  Si  Si100  1  0.944910  0.144420  0.295800  1
