# generated using pymatgen
data_SiH33(C13O)2
_symmetry_space_group_name_H-M   'P 1'
_cell_length_a   7.25640000
_cell_length_b   8.56840000
_cell_length_c   19.20300000
_cell_angle_alpha   89.03610000
_cell_angle_beta   80.49120000
_cell_angle_gamma   80.26590000
_symmetry_Int_Tables_number   1
_chemical_formula_structural   SiH33(C13O)2
_chemical_formula_sum   'Si2 H66 C52 O4'
_cell_volume   1160.52691596
_cell_formula_units_Z   2
loop_
 _symmetry_equiv_pos_site_id
 _symmetry_equiv_pos_as_xyz
  1  'x, y, z'
loop_
 _atom_site_type_symbol
 _atom_site_label
 _atom_site_symmetry_multiplicity
 _atom_site_fract_x
 _atom_site_fract_y
 _atom_site_fract_z
 _atom_site_occupancy
  C  C1  1  0.635100  0.631800  0.296960  1
  C  C2  1  0.685900  0.918700  0.207950  1
  C  C3  1  0.483400  0.665900  0.160070  1
  C  C4  1  0.912500  0.589000  0.161240  1
  C  C5  1  0.598700  0.589600  0.357150  1
  C  C6  1  0.516700  1.017800  0.255170  1
  C  C7  1  0.505700  0.720000  0.082800  1
  C  C8  1  0.928400  0.408700  0.164490  1
  C  C9  1  0.550600  0.543900  0.429000  1
  C  C10  1  0.497700  1.195200  0.242090  1
  C  C11  1  0.334200  0.710900  0.047650  1
  C  C12  1  1.108100  0.319300  0.120720  1
  C  C13  1  0.610700  0.386400  0.449310  1
  C  C14  1  0.441700  0.657900  0.478510  1
  C  C15  1  0.333100  1.292800  0.290270  1
  C  C16  1  0.355100  0.773900  -0.027000  1
  C  C17  1  1.128100  0.140700  0.127540  1
  C  C18  1  0.721900  0.271200  0.401440  1
  C  C19  1  0.558300  0.342100  0.521490  1
  C  C20  1  0.389300  0.613600  0.550690  1
  C  C21  1  0.381400  0.815700  0.459090  1
  C  C22  1  0.780300  0.116900  0.421050  1
  C  C23  1  0.449400  0.456100  0.571000  1
  C  C24  1  0.618600  0.184300  0.540910  1
  C  C25  1  0.278100  0.728800  0.598560  1
  C  C26  1  0.275200  0.927600  0.506790  1
  C  C27  1  0.894400  0.000900  0.371340  1
  C  C28  1  0.724800  0.072400  0.493210  1
  C  C29  1  0.401300  0.410400  0.642850  1
  C  C30  1  0.219700  0.883100  0.578950  1
  C  C31  1  0.218600  1.087700  0.485070  1
  C  C32  1  0.941700  -0.146600  0.394670  1
  C  C33  1  0.781400  -0.087700  0.514930  1
  C  C34  1  0.364900  0.368200  0.703040  1
  C  C35  1  0.105600  0.999100  0.628660  1
  C  C36  1  0.115000  1.189900  0.534450  1
  C  C37  1  0.885000  -0.189900  0.465550  1
  C  C38  1  0.058300  1.146600  0.605330  1
  C  C39  1  1.048000  -0.406900  0.405920  1
  C  C40  1  0.314100  0.081300  0.792050  1
  C  C41  1  0.516600  0.334100  0.839930  1
  C  C42  1  0.087500  0.411000  0.838760  1
  C  C43  1  -0.048000  1.406900  0.594080  1
  C  C44  1  0.483300  -0.017800  0.744830  1
  C  C45  1  0.494300  0.280000  0.917200  1
  C  C46  1  0.071600  0.591300  0.835510  1
  C  C47  1  0.502300  -0.195200  0.757910  1
  C  C48  1  0.665800  0.289100  0.952350  1
  C  C49  1  -0.108100  0.680700  0.879280  1
  C  C50  1  0.666900  -0.292800  0.709730  1
  C  C51  1  0.644900  0.226100  1.027000  1
  C  C52  1  -0.128100  0.859300  0.872460  1
  H  H53  1  0.803800  0.934800  0.224400  1
  H  H54  1  0.691200  0.959000  0.159200  1
  H  H55  1  0.477100  0.551400  0.161400  1
  H  H56  1  0.362100  0.722800  0.186100  1
  H  H57  1  0.932600  0.620300  0.111100  1
  H  H58  1  1.015400  0.620000  0.183200  1
  H  H59  1  0.398900  0.982100  0.247300  1
  H  H60  1  0.529800  0.997900  0.305200  1
  H  H61  1  0.528900  0.830700  0.081000  1
  H  H62  1  0.618400  0.653400  0.055500  1
  H  H63  1  0.924100  0.375800  0.214300  1
  H  H64  1  0.817300  0.378400  0.147800  1
  H  H65  1  0.616700  1.230600  0.248800  1
  H  H66  1  0.480900  1.215600  0.192400  1
  H  H67  1  0.315500  0.599200  0.046600  1
  H  H68  1  0.219900  0.772400  0.076300  1
  H  H69  1  1.108900  0.347300  0.070500  1
  H  H70  1  1.219300  0.354100  0.135500  1
  H  H71  1  0.215600  1.253900  0.286400  1
  H  H72  1  0.321600  1.404100  0.276300  1
  H  H73  1  0.355800  1.283200  0.339200  1
  H  H74  1  0.376100  0.883800  -0.026400  1
  H  H75  1  0.239300  0.769300  -0.046400  1
  H  H76  1  0.463300  0.709200  -0.056400  1
  H  H77  1  1.128700  0.111800  0.177100  1
  H  H78  1  1.247200  0.090500  0.098800  1
  H  H79  1  1.021400  0.104600  0.111100  1
  H  H80  1  0.758200  0.300500  0.353900  1
  H  H81  1  0.415100  0.845700  0.411400  1
  H  H82  1  0.584900  0.154300  0.588600  1
  H  H83  1  0.241800  0.699500  0.646100  1
  H  H84  1  0.934800  0.027900  0.323700  1
  H  H85  1  0.253100  1.119600  0.437800  1
  H  H86  1  0.746900  -0.119600  0.562200  1
  H  H87  1  0.065200  0.972100  0.676300  1
  H  H88  1  0.979100  -0.485700  0.389400  1
  H  H89  1  1.179400  -0.459200  0.408200  1
  H  H90  1  0.196200  0.065200  0.775600  1
  H  H91  1  0.308800  0.041000  0.840800  1
  H  H92  1  0.522900  0.448600  0.838600  1
  H  H93  1  0.637900  0.277200  0.813900  1
  H  H94  1  0.067400  0.379700  0.888900  1
  H  H95  1  -0.015400  0.380000  0.816800  1
  H  H96  1  0.020900  1.485700  0.610600  1
  H  H97  1  -0.179400  1.459200  0.591800  1
  H  H98  1  0.601100  0.017900  0.752700  1
  H  H99  1  0.470200  0.002100  0.694800  1
  H  H100  1  0.471100  0.169300  0.919000  1
  H  H101  1  0.381600  0.346600  0.944500  1
  H  H102  1  0.075900  0.624200  0.785700  1
  H  H103  1  0.182700  0.621600  0.852200  1
  H  H104  1  0.383300  -0.230600  0.751200  1
  H  H105  1  0.519100  -0.215600  0.807600  1
  H  H106  1  0.684500  0.400800  0.953400  1
  H  H107  1  0.780100  0.227600  0.923700  1
  H  H108  1  -0.108900  0.652700  0.929500  1
  H  H109  1  -0.219300  0.645900  0.864500  1
  H  H110  1  0.784400  -0.253900  0.713600  1
  H  H111  1  0.678400  -0.404100  0.723700  1
  H  H112  1  0.644200  -0.283200  0.660800  1
  H  H113  1  0.623900  0.116200  1.026400  1
  H  H114  1  0.760700  0.230700  1.046400  1
  H  H115  1  0.536700  0.290800  1.056400  1
  H  H116  1  -0.128700  0.888200  0.822900  1
  H  H117  1  -0.247200  0.909500  0.901200  1
  H  H118  1  -0.021400  0.895400  0.888900  1
  O  O119  1  1.049370  -0.275730  0.358340  1
  O  O120  1  0.044310  1.346490  0.525960  1
  O  O121  1  0.955690  -0.346490  0.474040  1
  O  O122  1  -0.049370  1.275730  0.641660  1
  Si  Si123  1  0.681060  0.701770  0.205930  1.0
  Si  Si124  1  0.318940  0.298230  0.794070  1
