# generated using pymatgen
data_SiH26C21S2
_symmetry_space_group_name_H-M   'P 1'
_cell_length_a   9.35580000
_cell_length_b   10.15540000
_cell_length_c   11.47770000
_cell_angle_alpha   109.42400000
_cell_angle_beta   95.10200000
_cell_angle_gamma   91.03200000
_symmetry_Int_Tables_number   1
_chemical_formula_structural   SiH26C21S2
_chemical_formula_sum   'Si2 H52 C42 S4'
_cell_volume   1023.05949884
_cell_formula_units_Z   2
loop_
 _symmetry_equiv_pos_site_id
 _symmetry_equiv_pos_as_xyz
  1  'x, y, z'
loop_
 _atom_site_type_symbol
 _atom_site_label
 _atom_site_symmetry_multiplicity
 _atom_site_fract_x
 _atom_site_fract_y
 _atom_site_fract_z
 _atom_site_occupancy
  C  C1  1  0.382900  0.780000  0.332700  1
  C  C2  1  0.498600  1.021500  0.269400  1
  C  C3  1  0.277800  0.780600  0.081400  1
  C  C4  1  0.183600  1.002300  0.316200  1
  C  C5  1  0.416300  0.698100  0.384300  1
  C  C6  1  0.632600  0.951200  0.221300  1
  C  C7  1  0.466900  1.144300  0.223200  1
  C  C8  1  0.386300  0.672100  0.024700  1
  C  C9  1  0.228700  0.861200  -0.004900  1
  C  C10  1  0.046800  0.912500  0.302500  1
  C  C11  1  0.224200  1.086700  0.452700  1
  C  C12  1  0.458400  0.598400  0.442900  1
  C  C13  1  0.366900  0.567100  0.523300  1
  C  C14  1  0.589900  0.533500  0.418600  1
  C  C15  1  0.235000  0.631900  0.548000  1
  C  C16  1  0.410100  0.466500  0.581400  1
  C  C17  1  0.633100  0.432900  0.476700  1
  C  C18  1  0.681000  0.564800  0.338300  1
  C  C19  1  0.149600  0.598700  0.625500  1
  C  C20  1  0.541600  0.401600  0.557100  1
  C  C21  1  0.319000  0.435200  0.661700  1
  C  C22  1  0.765000  0.368100  0.452000  1
  C  C23  1  0.808800  0.502900  0.318100  1
  C  C24  1  0.191200  0.497100  0.681900  1
  C  C25  1  0.583700  0.301900  0.615700  1
  C  C26  1  0.850400  0.401300  0.374500  1
  C  C27  1  0.919600  0.517800  0.245700  1
  C  C28  1  0.080400  0.482200  0.754300  1
  C  C29  1  -0.033900  0.562200  0.757600  1
  C  C30  1  0.617100  0.220000  0.667300  1
  C  C31  1  1.033900  0.437800  0.242400  1
  C  C32  1  -0.167900  0.564300  0.820300  1
  C  C33  1  1.167900  0.435700  0.179700  1
  C  C34  1  0.501400  -0.021500  0.730600  1
  C  C35  1  0.722200  0.219400  0.918600  1
  C  C36  1  0.816400  -0.002300  0.683800  1
  C  C37  1  0.367400  0.048800  0.778700  1
  C  C38  1  0.533100  -0.144300  0.776800  1
  C  C39  1  0.613700  0.327900  0.975300  1
  C  C40  1  0.771300  0.138800  1.004900  1
  C  C41  1  0.953200  0.087500  0.697500  1
  C  C42  1  0.775800  -0.086700  0.547300  1
  H  H43  1  0.521200  1.063700  0.361400  1
  H  H44  1  0.190600  0.725700  0.087400  1
  H  H45  1  0.161900  1.070200  0.271600  1
  H  H46  1  0.620600  0.916300  0.130400  1
  H  H47  1  0.649200  0.873000  0.252000  1
  H  H48  1  0.715000  1.018900  0.250400  1
  H  H49  1  0.553000  1.206800  0.240900  1
  H  H50  1  0.388300  1.195900  0.265600  1
  H  H51  1  0.439100  1.108700  0.133500  1
  H  H52  1  0.342500  0.605800  -0.054200  1
  H  H53  1  0.414100  0.621700  0.082000  1
  H  H54  1  0.471600  0.719500  0.010100  1
  H  H55  1  0.311000  0.914900  -0.016800  1
  H  H56  1  0.155100  0.925200  0.032000  1
  H  H57  1  0.188500  0.795300  -0.085400  1
  H  H58  1  0.066200  0.840700  0.340700  1
  H  H59  1  0.014400  0.867600  0.214200  1
  H  H60  1  -0.028100  0.971500  0.343800  1
  H  H61  1  0.142800  1.140700  0.486800  1
  H  H62  1  0.307000  1.150500  0.460400  1
  H  H63  1  0.248900  1.023000  0.498700  1
  H  H64  1  0.205800  0.698800  0.510500  1
  H  H65  1  0.652700  0.629500  0.298000  1
  H  H66  1  0.347300  0.370500  0.702000  1
  H  H67  1  0.794200  0.301200  0.489500  1
  H  H68  1  0.913400  0.581800  0.201200  1
  H  H69  1  0.086600  0.418200  0.798800  1
  H  H70  1  -0.178300  0.476400  0.839100  1
  H  H71  1  -0.251700  0.567400  0.762500  1
  H  H72  1  1.178300  0.523600  0.160900  1
  H  H73  1  1.251700  0.432600  0.237500  1
  H  H74  1  0.478800  -0.063700  0.638600  1
  H  H75  1  0.809400  0.274300  0.912600  1
  H  H76  1  0.838100  -0.070200  0.728400  1
  H  H77  1  0.379400  0.083700  0.869600  1
  H  H78  1  0.350800  0.127000  0.748000  1
  H  H79  1  0.285000  -0.018900  0.749600  1
  H  H80  1  0.447000  -0.206800  0.759100  1
  H  H81  1  0.611700  -0.195900  0.734400  1
  H  H82  1  0.560900  -0.108700  0.866500  1
  H  H83  1  0.657500  0.394200  1.054200  1
  H  H84  1  0.585900  0.378300  0.918000  1
  H  H85  1  0.528400  0.280500  0.989900  1
  H  H86  1  0.689000  0.085100  1.016800  1
  H  H87  1  0.844900  0.074800  0.968000  1
  H  H88  1  0.811500  0.204700  1.085400  1
  H  H89  1  0.933800  0.159300  0.659300  1
  H  H90  1  0.985600  0.132400  0.785800  1
  H  H91  1  1.028100  0.028500  0.656200  1
  H  H92  1  0.857200  -0.140700  0.513200  1
  H  H93  1  0.693000  -0.150500  0.539600  1
  H  H94  1  0.751100  -0.023000  0.501300  1
  S  S95  1  -0.017150  0.669110  0.666110  1
  S  S96  1  1.017150  0.330890  0.333890  1
  S  S97  1  -0.170000  0.711000  0.962900  1
  S  S98  1  1.170000  0.289000  0.037100  1
  Si  Si99  1  0.336370  0.898420  0.244830  1.0
  Si  Si100  1  0.663630  0.101580  0.755170  1
