# generated using pymatgen
data_GeH21C19
_symmetry_space_group_name_H-M   'P 1'
_cell_length_a   7.21000000
_cell_length_b   9.96500000
_cell_length_c   11.38900000
_cell_angle_alpha   80.51700000
_cell_angle_beta   88.83700000
_cell_angle_gamma   82.17300000
_symmetry_Int_Tables_number   1
_chemical_formula_structural   GeH21C19
_chemical_formula_sum   'Ge2 H42 C38'
_cell_volume   799.56984515
_cell_formula_units_Z   2
loop_
 _symmetry_equiv_pos_site_id
 _symmetry_equiv_pos_as_xyz
  1  'x, y, z'
loop_
 _atom_site_type_symbol
 _atom_site_label
 _atom_site_symmetry_multiplicity
 _atom_site_fract_x
 _atom_site_fract_y
 _atom_site_fract_z
 _atom_site_occupancy
  C  C1  1  0.129600  0.794240  0.723510  1
  C  C2  1  0.464900  0.737700  0.557000  1
  C  C3  1  0.052500  0.687990  0.484120  1
  C  C4  1  0.258800  0.490700  0.706960  1
  C  C5  1  0.086300  0.856260  0.804430  1
  C  C6  1  0.597600  0.740900  0.658900  1
  C  C7  1  -0.016600  0.833200  0.422140  1
  C  C8  1  0.091900  0.466300  0.788280  1
  C  C9  1  0.041200  0.929020  0.901970  1
  C  C10  1  0.158000  1.024800  0.926260  1
  C  C11  1  -0.116400  0.902720  0.974380  1
  C  C12  1  0.317400  1.050010  0.856590  1
  C  C13  1  0.116400  1.097280  1.025620  1
  C  C14  1  -0.158000  0.975200  1.073740  1
  C  C15  1  -0.235200  0.808450  0.951650  1
  C  C16  1  0.434400  1.141880  0.880590  1
  C  C17  1  -0.041200  1.070980  1.098030  1
  C  C18  1  0.235200  1.191550  1.048350  1
  C  C19  1  -0.317400  0.949990  1.143410  1
  C  C20  1  -0.391800  0.784840  1.020930  1
  C  C21  1  0.597900  1.165240  0.811160  1
  C  C22  1  0.391800  1.215160  0.979070  1
  C  C23  1  -0.086300  1.143740  1.195570  1
  C  C24  1  -0.434400  0.858120  1.119410  1
  C  C25  1  -0.514400  0.690080  0.998410  1
  C  C26  1  0.711400  1.254490  0.836560  1
  C  C27  1  0.514400  1.309920  1.001590  1
  C  C28  1  -0.129600  1.205760  1.276490  1
  C  C29  1  -0.597900  0.834760  1.188840  1
  C  C30  1  -0.668800  0.671440  1.066640  1
  C  C31  1  0.668800  1.328560  0.933360  1
  C  C32  1  -0.711400  0.745510  1.163440  1
  C  C33  1  -0.464900  1.262300  1.443000  1
  C  C34  1  -0.052500  1.312010  1.515880  1
  C  C35  1  -0.258800  1.509300  1.293040  1
  C  C36  1  -0.597600  1.259100  1.341100  1
  C  C37  1  0.016600  1.166800  1.577860  1
  C  C38  1  -0.091900  1.533700  1.211720  1
  Ge  Ge39  1  0.228660  0.675660  0.613957  1.0
  Ge  Ge40  1  -0.228660  1.324340  1.386043  1
  H  H41  1  0.526400  0.675500  0.504200  1
  H  H42  1  0.439000  0.830900  0.509600  1
  H  H43  1  0.113000  0.635000  0.424100  1
  H  H44  1  -0.057200  0.643800  0.515700  1
  H  H45  1  0.273800  0.422600  0.652100  1
  H  H46  1  0.373900  0.477000  0.755800  1
  H  H47  1  0.533400  0.795700  0.715400  1
  H  H48  1  0.708000  0.782100  0.627100  1
  H  H49  1  0.636800  0.647100  0.699800  1
  H  H50  1  -0.083800  0.885300  0.479400  1
  H  H51  1  -0.101000  0.829200  0.356800  1
  H  H52  1  0.090500  0.878400  0.390400  1
  H  H53  1  0.086700  0.525000  0.849600  1
  H  H54  1  0.105400  0.369700  0.826200  1
  H  H55  1  -0.023800  0.488300  0.741200  1
  H  H56  1  0.345600  1.002600  0.791200  1
  H  H57  1  -0.207200  0.759700  0.887100  1
  H  H58  1  0.207200  1.240300  1.112900  1
  H  H59  1  -0.345600  0.997400  1.208800  1
  H  H60  1  0.627500  1.117400  0.746200  1
  H  H61  1  -0.487400  0.639500  0.934900  1
  H  H62  1  0.820000  1.268000  0.789800  1
  H  H63  1  0.487400  1.360500  1.065100  1
  H  H64  1  -0.627500  0.882600  1.253800  1
  H  H65  1  -0.748900  0.608700  1.049900  1
  H  H66  1  0.748900  1.391300  0.950100  1
  H  H67  1  -0.820000  0.732000  1.210200  1
  H  H68  1  -0.526400  1.324500  1.495800  1
  H  H69  1  -0.439000  1.169100  1.490400  1
  H  H70  1  -0.113000  1.365000  1.575900  1
  H  H71  1  0.057200  1.356200  1.484300  1
  H  H72  1  -0.273800  1.577400  1.347900  1
  H  H73  1  -0.373900  1.523000  1.244200  1
  H  H74  1  -0.533400  1.204300  1.284600  1
  H  H75  1  -0.708000  1.217900  1.372900  1
  H  H76  1  -0.636800  1.352900  1.300200  1
  H  H77  1  0.083800  1.114700  1.520600  1
  H  H78  1  0.101000  1.170800  1.643200  1
  H  H79  1  -0.090500  1.121600  1.609600  1
  H  H80  1  -0.086700  1.475000  1.150400  1
  H  H81  1  -0.105400  1.630300  1.173800  1
  H  H82  1  0.023800  1.511700  1.258800  1
