# generated using pymatgen
data_SiH33C27F4
_symmetry_space_group_name_H-M   'P 1'
_cell_length_a   8.21020000
_cell_length_b   14.72260000
_cell_length_c   20.91850000
_cell_angle_alpha   82.40700000
_cell_angle_beta   85.75200000
_cell_angle_gamma   84.64300000
_symmetry_Int_Tables_number   1
_chemical_formula_structural   SiH33C27F4
_chemical_formula_sum   'Si4 H132 C108 F16'
_cell_volume   2490.52847196
_cell_formula_units_Z   4
loop_
 _symmetry_equiv_pos_site_id
 _symmetry_equiv_pos_as_xyz
  1  'x, y, z'
loop_
 _atom_site_type_symbol
 _atom_site_label
 _atom_site_symmetry_multiplicity
 _atom_site_fract_x
 _atom_site_fract_y
 _atom_site_fract_z
 _atom_site_occupancy
  C  C1  1  0.560200  0.636150  0.319180  1
  C  C2  1  0.377200  0.763850  0.218670  1
  C  C3  1  0.741500  0.791010  0.249190  1
  C  C4  1  0.665100  0.631300  0.178140  1
  C  C5  1  0.543800  0.592380  0.372090  1
  C  C6  1  0.268500  0.692630  0.201850  1
  C  C7  1  0.288300  0.817600  0.270700  1
  C  C8  1  0.696900  0.855530  0.300510  1
  C  C9  1  0.789600  0.845250  0.184630  1
  C  C10  1  0.839500  0.586150  0.185420  1
  C  C11  1  0.521900  0.544730  0.435620  1
  C  C12  1  0.901000  0.532670  0.129290  1
  C  C13  1  0.652600  0.487000  0.463670  1
  C  C14  1  0.369300  0.557620  0.471240  1
  C  C15  1  1.076400  0.489460  0.133740  1
  C  C16  1  0.805000  0.473670  0.429090  1
  C  C17  1  0.630700  0.442380  0.528760  1
  C  C18  1  0.347400  0.513000  0.536330  1
  C  C19  1  0.236700  0.612670  0.443170  1
  C  C20  1  1.145600  0.452810  0.071780  1
  C  C21  1  0.934500  0.419870  0.457380  1
  C  C22  1  0.478100  0.455270  0.564380  1
  C  C23  1  0.763300  0.387330  0.556830  1
  C  C24  1  0.195000  0.526330  0.570910  1
  C  C25  1  0.086600  0.623360  0.477040  1
  C  C26  1  1.320500  0.408930  0.074640  1
  C  C27  1  1.091100  0.407130  0.423910  1
  C  C28  1  0.913400  0.376640  0.522960  1
  C  C29  1  0.456200  0.407620  0.627910  1
  C  C30  1  0.065500  0.580130  0.542620  1
  C  C31  1  -0.050500  0.677210  0.449140  1
  C  C32  1  1.394900  0.384100  0.009870  1
  C  C33  1  1.216800  0.355470  0.452620  1
  C  C34  1  1.050500  0.322790  0.550860  1
  C  C35  1  0.439800  0.363850  0.680820  1
  C  C36  1  -0.091100  0.592870  0.576090  1
  C  C37  1  -0.195700  0.687750  0.482960  1
  C  C38  1  1.568000  0.338400  0.012800  1
  C  C39  1  1.195700  0.312250  0.517040  1
  C  C40  1  -0.216800  0.644530  0.547380  1
  C  C41  1  0.622800  0.236150  0.781330  1
  C  C42  1  0.258500  0.208990  0.750810  1
  C  C43  1  0.334900  0.368700  0.821860  1
  C  C44  1  0.731500  0.307370  0.798150  1
  C  C45  1  0.711700  0.182400  0.729300  1
  C  C46  1  0.303100  0.144470  0.699490  1
  C  C47  1  0.210400  0.154750  0.815370  1
  C  C48  1  0.160500  0.413850  0.814580  1
  C  C49  1  0.099000  0.467330  0.870710  1
  C  C50  1  -0.076400  0.510540  0.866260  1
  C  C51  1  -0.145600  0.547190  0.928220  1
  C  C52  1  -0.320500  0.591070  0.925360  1
  C  C53  1  -0.394900  0.615900  0.990130  1
  C  C54  1  -0.568000  0.661600  0.987200  1
  C  C55  1  0.401600  -0.124500  0.682280  1
  C  C56  1  0.457500  -0.307640  0.763490  1
  C  C57  1  0.114800  -0.198470  0.765670  1
  C  C58  1  0.388200  -0.126850  0.828770  1
  C  C59  1  0.435300  -0.086120  0.628850  1
  C  C60  1  0.379900  -0.369980  0.723040  1
  C  C61  1  0.639400  -0.303050  0.741910  1
  C  C62  1  0.056800  -0.243410  0.832540  1
  C  C63  1  0.018200  -0.105150  0.748310  1
  C  C64  1  0.558300  -0.093390  0.831420  1
  C  C65  1  0.469400  -0.042220  0.564790  1
  C  C66  1  0.573900  -0.045930  0.890760  1
  C  C67  1  0.344200  0.015800  0.532710  1
  C  C68  1  0.625600  -0.057810  0.532530  1
  C  C69  1  0.735000  -0.002460  0.890710  1
  C  C70  1  0.188000  0.031730  0.564070  1
  C  C71  1  0.374400  0.057810  0.467470  1
  C  C72  1  0.655800  -0.015800  0.467290  1
  C  C73  1  0.752800  -0.113790  0.563720  1
  C  C74  1  0.747800  0.049250  0.948630  1
  C  C75  1  0.064100  0.086050  0.532950  1
  C  C76  1  0.530600  0.042220  0.435210  1
  C  C77  1  0.247200  0.113790  0.436280  1
  C  C78  1  0.812000  -0.031730  0.435930  1
  C  C79  1  0.905900  -0.127930  0.532480  1
  C  C80  1  0.897200  0.103910  0.942560  1
  C  C81  1  -0.095300  0.101390  0.563630  1
  C  C82  1  0.094100  0.127930  0.467520  1
  C  C83  1  0.564700  0.086120  0.371150  1
  C  C84  1  0.935900  -0.086050  0.467050  1
  C  C85  1  1.037800  -0.183960  0.562670  1
  C  C86  1  0.921700  0.150110  1.001550  1
  C  C87  1  -0.216100  0.154290  0.532730  1
  C  C88  1  -0.037800  0.183960  0.437330  1
  C  C89  1  0.598400  0.124500  0.317720  1
  C  C90  1  1.095300  -0.101390  0.436370  1
  C  C91  1  1.186400  -0.196800  0.531450  1
  C  C92  1  1.066900  0.208620  0.991910  1
  C  C93  1  -0.186400  0.196800  0.468550  1
  C  C94  1  1.216100  -0.154290  0.467270  1
  C  C95  1  0.542500  0.307640  0.236510  1
  C  C96  1  0.885200  0.198470  0.234330  1
  C  C97  1  0.611800  0.126850  0.171230  1
  C  C98  1  0.620100  0.369980  0.276960  1
  C  C99  1  0.360600  0.303050  0.258090  1
  C  C100  1  0.943200  0.243410  0.167460  1
  C  C101  1  0.981800  0.105150  0.251690  1
  C  C102  1  0.441700  0.093390  0.168580  1
  C  C103  1  0.426100  0.045930  0.109240  1
  C  C104  1  0.265000  0.002460  0.109290  1
  C  C105  1  0.252200  -0.049250  0.051370  1
  C  C106  1  0.102800  -0.103910  0.057440  1
  C  C107  1  0.078300  -0.150110  -0.001550  1
  C  C108  1  -0.066900  -0.208620  0.008090  1
  F  F109  1  1.112940  0.448420  0.363190  1
  F  F110  1  -0.032050  0.717990  0.387790  1
  F  F111  1  1.364860  0.344140  0.421730  1
  F  F112  1  1.032050  0.282010  0.612210  1
  F  F113  1  -0.112940  0.551580  0.636810  1
  F  F114  1  -0.324430  0.739440  0.457770  1
  F  F115  1  1.324430  0.260560  0.542230  1
  F  F116  1  -0.364860  0.655860  0.578270  1
  F  F117  1  -0.124420  0.061220  0.624390  1
  F  F118  1  1.010000  -0.225480  0.623110  1
  F  F119  1  -0.366580  0.168000  0.561370  1
  F  F120  1  -0.010000  0.225480  0.376890  1
  F  F121  1  1.124420  -0.061220  0.375610  1
  F  F122  1  1.309050  -0.250800  0.559080  1
  F  F123  1  -0.309050  0.250800  0.440920  1
  F  F124  1  1.366580  -0.168000  0.438630  1
  H  H125  1  0.394200  0.808600  0.178900  1
  H  H126  1  0.842600  0.752500  0.263100  1
  H  H127  1  0.590100  0.582100  0.179300  1
  H  H128  1  0.661100  0.668000  0.135000  1
  H  H129  1  0.253800  0.645800  0.239300  1
  H  H130  1  0.320600  0.663300  0.165200  1
  H  H131  1  0.161500  0.723100  0.190300  1
  H  H132  1  0.181200  0.844100  0.256300  1
  H  H133  1  0.353800  0.867100  0.278200  1
  H  H134  1  0.272900  0.776100  0.310900  1
  H  H135  1  0.794200  0.885200  0.308400  1
  H  H136  1  0.656800  0.820200  0.340700  1
  H  H137  1  0.611100  0.902600  0.285300  1
  H  H138  1  0.694100  0.884200  0.168500  1
  H  H139  1  0.828600  0.802600  0.153500  1
  H  H140  1  0.877000  0.884000  0.190200  1
  H  H141  1  0.914200  0.634300  0.188200  1
  H  H142  1  0.842100  0.543800  0.226300  1
  H  H143  1  0.827700  0.483400  0.127600  1
  H  H144  1  0.893800  0.574800  0.088400  1
  H  H145  1  1.146800  0.536000  0.143900  1
  H  H146  1  1.079600  0.438400  0.169700  1
  H  H147  1  0.819100  0.502000  0.385800  1
  H  H148  1  0.250800  0.642800  0.400300  1
  H  H149  1  1.141900  0.504100  0.036000  1
  H  H150  1  1.074300  0.406700  0.061600  1
  H  H151  1  0.749200  0.357200  0.599700  1
  H  H152  1  0.180900  0.498000  0.614200  1
  H  H153  1  1.389400  0.452000  0.090400  1
  H  H154  1  1.321900  0.352600  0.106200  1
  H  H155  1  1.324500  0.342200  -0.006300  1
  H  H156  1  1.395800  0.440700  -0.021400  1
  H  H157  1  1.638100  0.378800  0.029700  1
  H  H158  1  1.610500  0.326900  -0.030700  1
  H  H159  1  1.567200  0.279900  0.041300  1
  H  H160  1  0.605800  0.191400  0.821100  1
  H  H161  1  0.157400  0.247500  0.736900  1
  H  H162  1  0.409900  0.417900  0.820700  1
  H  H163  1  0.338900  0.332000  0.865000  1
  H  H164  1  0.746200  0.354200  0.760700  1
  H  H165  1  0.679400  0.336700  0.834800  1
  H  H166  1  0.838500  0.276900  0.809700  1
  H  H167  1  0.818800  0.155900  0.743700  1
  H  H168  1  0.646200  0.132900  0.721800  1
  H  H169  1  0.727100  0.223900  0.689100  1
  H  H170  1  0.205800  0.114800  0.691600  1
  H  H171  1  0.343200  0.179800  0.659300  1
  H  H172  1  0.388900  0.097400  0.714700  1
  H  H173  1  0.305900  0.115800  0.831500  1
  H  H174  1  0.171400  0.197400  0.846500  1
  H  H175  1  0.123000  0.116000  0.809800  1
  H  H176  1  0.085800  0.365700  0.811800  1
  H  H177  1  0.157900  0.456200  0.773700  1
  H  H178  1  0.172300  0.516600  0.872400  1
  H  H179  1  0.106200  0.425200  0.911600  1
  H  H180  1  -0.146800  0.464000  0.856100  1
  H  H181  1  -0.079600  0.561600  0.830300  1
  H  H182  1  -0.141900  0.495900  0.964000  1
  H  H183  1  -0.074300  0.593300  0.938400  1
  H  H184  1  -0.389400  0.548000  0.909600  1
  H  H185  1  -0.321900  0.647400  0.893800  1
  H  H186  1  -0.324500  0.657800  1.006300  1
  H  H187  1  -0.395800  0.559300  1.021400  1
  H  H188  1  -0.638100  0.621200  0.970300  1
  H  H189  1  -0.610500  0.673100  1.030700  1
  H  H190  1  -0.567200  0.720100  0.958700  1
  H  H191  1  0.451100  -0.337100  0.809400  1
  H  H192  1  0.091500  -0.239500  0.733500  1
  H  H193  1  0.307800  -0.072400  0.828700  1
  H  H194  1  0.365800  -0.167200  0.869600  1
  H  H195  1  0.376200  -0.340500  0.678300  1
  H  H196  1  0.268300  -0.380000  0.740900  1
  H  H197  1  0.445600  -0.429200  0.724100  1
  H  H198  1  0.694500  -0.365300  0.745700  1
  H  H199  1  0.690200  -0.266000  0.769400  1
  H  H200  1  0.650000  -0.274800  0.696800  1
  H  H201  1  0.074000  -0.203600  0.865000  1
  H  H202  1  0.119200  -0.303100  0.842400  1
  H  H203  1  -0.060100  -0.252400  0.833000  1
  H  H204  1  -0.098900  -0.113800  0.749300  1
  H  H205  1  0.055400  -0.078300  0.704900  1
  H  H206  1  0.036500  -0.063800  0.779600  1
  H  H207  1  0.641500  -0.146600  0.831400  1
  H  H208  1  0.581500  -0.050000  0.792100  1
  H  H209  1  0.563100  -0.091500  0.929800  1
  H  H210  1  0.482300  0.002500  0.893500  1
  H  H211  1  0.748400  0.040800  0.850600  1
  H  H212  1  0.826300  -0.051400  0.890200  1
  H  H213  1  0.167700  0.004600  0.607400  1
  H  H214  1  0.733000  -0.142100  0.606800  1
  H  H215  1  0.648000  0.091700  0.953300  1
  H  H216  1  0.752400  0.004500  0.988300  1
  H  H217  1  0.267000  0.142100  0.393200  1
  H  H218  1  0.832300  -0.004600  0.392600  1
  H  H219  1  0.887700  0.151800  0.904700  1
  H  H220  1  0.995800  0.062200  0.934000  1
  H  H221  1  0.938600  0.102300  1.039000  1
  H  H222  1  0.821100  0.189400  1.011700  1
  H  H223  1  1.166800  0.170200  0.981400  1
  H  H224  1  1.079200  0.235100  1.031700  1
  H  H225  1  1.048100  0.258200  0.956400  1
  H  H226  1  0.548900  0.337100  0.190600  1
  H  H227  1  0.908500  0.239500  0.266500  1
  H  H228  1  0.692200  0.072400  0.171300  1
  H  H229  1  0.634200  0.167200  0.130400  1
  H  H230  1  0.623800  0.340500  0.321700  1
  H  H231  1  0.731700  0.380000  0.259100  1
  H  H232  1  0.554400  0.429200  0.275900  1
  H  H233  1  0.305500  0.365300  0.254300  1
  H  H234  1  0.309800  0.266000  0.230600  1
  H  H235  1  0.350000  0.274800  0.303200  1
  H  H236  1  0.926000  0.203600  0.135000  1
  H  H237  1  0.880800  0.303100  0.157600  1
  H  H238  1  1.060100  0.252400  0.167000  1
  H  H239  1  1.098900  0.113800  0.250700  1
  H  H240  1  0.944600  0.078300  0.295100  1
  H  H241  1  0.963500  0.063800  0.220400  1
  H  H242  1  0.358500  0.146600  0.168600  1
  H  H243  1  0.418500  0.050000  0.207900  1
  H  H244  1  0.436900  0.091500  0.070200  1
  H  H245  1  0.517700  -0.002500  0.106500  1
  H  H246  1  0.251600  -0.040800  0.149400  1
  H  H247  1  0.173700  0.051400  0.109800  1
  H  H248  1  0.352000  -0.091700  0.046700  1
  H  H249  1  0.247600  -0.004500  0.011700  1
  H  H250  1  0.112300  -0.151800  0.095300  1
  H  H251  1  0.004200  -0.062200  0.066000  1
  H  H252  1  0.061400  -0.102300  -0.039000  1
  H  H253  1  0.178900  -0.189400  -0.011700  1
  H  H254  1  -0.166800  -0.170200  0.018600  1
  H  H255  1  -0.079200  -0.235100  -0.031700  1
  H  H256  1  -0.048100  -0.258200  0.043600  1
  Si  Si257  1  0.585470  0.707920  0.240550  1.0
  Si  Si258  1  0.414530  0.292080  0.759450  1
  Si  Si259  1  0.343080  -0.190160  0.760880  1.0
  Si  Si260  1  0.656920  0.190160  0.239120  1
