# generated using pymatgen
data_Si6C149
_symmetry_space_group_name_H-M   'P 1'
_cell_length_a   10.08100000
_cell_length_b   17.67000000
_cell_length_c   19.58800000
_cell_angle_alpha   94.58000000
_cell_angle_beta   93.11000000
_cell_angle_gamma   105.28000000
_symmetry_Int_Tables_number   1
_chemical_formula_structural   Si6C149
_chemical_formula_sum   'Si6 C149'
_cell_volume   3344.83866116
_cell_formula_units_Z   1
loop_
 _symmetry_equiv_pos_site_id
 _symmetry_equiv_pos_as_xyz
  1  'x, y, z'
loop_
 _atom_site_type_symbol
 _atom_site_label
 _atom_site_symmetry_multiplicity
 _atom_site_fract_x
 _atom_site_fract_y
 _atom_site_fract_z
 _atom_site_occupancy
  C  C1  1  0.610000  0.139300  0.443700  1
  C  C2  1  0.609900  0.264000  0.552500  1
  C  C3  1  0.716000  0.134600  0.587000  1
  C  C4  1  0.402000  0.111700  0.562800  1
  C  C5  1  0.494000  0.168600  0.390000  1
  C  C6  1  0.615000  0.061000  0.411000  1
  C  C7  1  0.650500  0.335300  0.556100  1
  C  C8  1  0.700200  0.153700  0.670700  1
  C  C9  1  0.863000  0.178200  0.577100  1
  C  C10  1  0.283000  0.142200  0.523700  1
  C  C11  1  0.378000  0.014200  0.552800  1
  C  C12  1  0.690000  0.424400  0.551900  1
  C  C13  1  0.720300  0.475900  0.620000  1
  C  C14  1  0.707300  0.454700  0.492600  1
  C  C15  1  0.746800  0.556300  0.613700  1
  C  C16  1  0.700400  0.437600  0.679500  1
  C  C17  1  0.748000  0.540300  0.490200  1
  C  C18  1  0.692700  0.404800  0.428600  1
  C  C19  1  0.759400  0.590000  0.552800  1
  C  C20  1  0.777900  0.613200  0.673600  1
  C  C21  1  0.731500  0.491200  0.744800  1
  C  C22  1  0.766100  0.580100  0.424800  1
  C  C23  1  0.711800  0.437200  0.367500  1
  C  C24  1  0.785000  0.674200  0.548700  1
  C  C25  1  0.764800  0.573900  0.738000  1
  C  C26  1  0.717900  0.462400  0.809000  1
  C  C27  1  0.745700  0.522500  0.359300  1
  C  C28  1  0.699900  0.391700  0.300700  1
  C  C29  1  0.801300  0.740800  0.543200  1
  C  C30  1  0.804700  0.633100  0.804000  1
  C  C31  1  0.739600  0.514000  0.868700  1
  C  C32  1  0.779800  0.553100  0.299200  1
  C  C33  1  0.714500  0.418900  0.248000  1
  C  C34  1  0.780000  0.591200  0.867800  1
  C  C35  1  0.734000  0.477100  0.930600  1
  C  C36  1  0.746900  0.503500  0.241000  1
  C  C37  1  0.689900  0.371200  0.180200  1
  C  C38  1  0.936000  0.874900  0.473600  1
  C  C39  1  0.644000  0.861200  0.526600  1
  C  C40  1  0.900000  0.890300  0.640500  1
  C  C41  1  0.824700  0.650100  0.928400  1
  C  C42  1  0.732000  0.454000  0.983800  1
  C  C43  1  0.771600  0.543700  0.173800  1
  C  C44  1  0.678000  0.327800  0.126700  1
  C  C45  1  0.574000  0.821900  0.462200  1
  C  C46  1  0.568000  0.847600  0.591700  1
  C  C47  1  0.914000  0.992300  0.635800  1
  C  C48  1  0.976100  0.871400  0.666667  1
  C  C49  1  0.852000  0.697500  0.976900  1
  C  C50  1  0.802400  0.573100  0.117500  1
  C  C51  1  0.320400  0.279500  0.864400  1
  C  C52  1  0.299000  0.141400  0.761300  1
  C  C53  1  0.486000  0.158100  0.894200  1
  C  C54  1  0.176000  0.131100  0.906200  1
  C  C55  1  0.352600  0.350800  0.866000  1
  C  C56  1  0.192000  0.181200  0.715300  1
  C  C57  1  0.292000  0.050700  0.752100  1
  C  C58  1  0.499000  0.188400  0.974100  1
  C  C59  1  0.162000  0.043700  0.928100  1
  C  C60  1  0.033000  0.137400  0.877000  1
  C  C61  1  0.382100  0.435300  0.860400  1
  C  C62  1  0.390200  0.472500  0.803300  1
  C  C63  1  0.410200  0.487300  0.927900  1
  C  C64  1  0.427100  0.552900  0.800400  1
  C  C65  1  0.357000  0.418800  0.739100  1
  C  C66  1  0.452500  0.572500  0.928400  1
  C  C67  1  0.398300  0.454400  0.991800  1
  C  C68  1  0.432500  0.586700  0.736000  1
  C  C69  1  0.452100  0.602700  0.858200  1
  C  C70  1  0.367000  0.451900  0.677000  1
  C  C71  1  0.478000  0.617100  0.988300  1
  C  C72  1  0.421900  0.498800  1.055600  1
  C  C73  1  0.408300  0.535000  0.673800  1
  C  C74  1  0.487800  0.685200  0.862300  1
  C  C75  1  0.337600  0.399500  0.607600  1
  C  C76  1  0.463300  0.587200  1.054600  1
  C  C77  1  0.411400  0.463900  1.114300  1
  C  C78  1  0.421500  0.563100  0.605200  1
  C  C79  1  0.502200  0.754800  0.860900  1
  C  C80  1  0.357000  0.430900  0.551200  1
  C  C81  1  0.492700  0.636200  1.112500  1
  C  C82  1  0.432300  0.516500  1.178800  1
  C  C83  1  0.395500  0.515600  0.548300  1
  C  C84  1  0.329000  0.385900  0.484800  1
  C  C85  1  0.480500  0.602300  1.178100  1
  C  C86  1  0.417000  0.486300  1.245400  1
  C  C87  1  0.415700  0.550100  0.482100  1
  C  C88  1  0.548000  0.892600  0.964400  1
  C  C89  1  0.360200  0.878700  0.834400  1
  C  C90  1  0.667000  0.904400  0.814600  1
  C  C91  1  0.304000  0.341500  0.431700  1
  C  C92  1  0.510900  0.660800  1.238200  1
  C  C93  1  0.404000  0.463600  1.297300  1
  C  C94  1  0.439200  0.583500  0.426600  1
  C  C95  1  0.663100  0.871400  1.003600  1
  C  C96  1  0.561600  0.979100  0.983500  1
  C  C97  1  0.325000  0.844000  0.756500  1
  C  C98  1  0.230300  0.832700  0.866800  1
  C  C99  1  0.815000  0.893600  0.842300  1
  C  C100  1  0.680000  0.998600  0.809400  1
  C  C101  1  0.544700  0.703900  1.288900  1
  C  C102  1  1.216100  0.760500  0.174700  1
  C  C103  1  1.222900  0.888900  0.282400  1
  C  C104  1  1.431000  0.919400  0.164400  1
  C  C105  1  1.124300  0.905200  0.134400  1
  C  C106  1  1.192200  0.689800  0.172300  1
  C  C107  1  1.208800  0.980100  0.301200  1
  C  C108  1  1.322400  0.869100  0.332500  1
  C  C109  1  1.554300  0.893800  0.206100  1
  C  C110  1  1.479000  1.014700  0.177900  1
  C  C111  1  1.148000  0.893100  0.061200  1
  C  C112  1  0.976000  0.862000  0.153000  1
  C  C113  1  1.148900  0.611200  0.169800  1
  C  C114  1  1.134200  0.563400  0.110200  1
  C  C115  1  1.126300  0.577800  0.236000  1
  C  C116  1  1.129300  0.588900  0.041800  1
  C  C117  1  1.084700  0.472700  0.108100  1
  C  C118  1  1.152600  0.627400  0.298300  1
  C  C119  1  1.094400  0.497800  0.238000  1
  C  C120  1  1.106200  0.539500  -0.013800  1
  C  C121  1  1.059200  0.427300  0.043700  1
  C  C122  1  1.071900  0.442000  0.177900  1
  C  C123  1  1.130000  0.595200  0.363700  1
  C  C124  1  1.067000  0.466200  0.300600  1
  C  C125  1  1.118400  0.575900  -0.083800  1
  C  C126  1  1.069600  0.454900  -0.018400  1
  C  C127  1  1.056900  0.362100  0.178500  1
  C  C128  1  1.150100  0.647600  0.420200  1
  C  C129  1  1.082700  0.512700  0.356800  1
  C  C130  1  1.078000  0.525800  -0.142300  1
  C  C131  1  1.042300  0.410000  -0.078400  1
  C  C132  1  1.047600  0.290600  0.180500  1
  C  C133  1  1.123600  0.611700  0.489200  1
  C  C134  1  1.069100  0.475600  0.424900  1
  C  C135  1  1.094900  0.555400  -0.207500  1
  C  C136  1  1.042100  0.437000  -0.138700  1
  C  C137  1  1.146000  0.666400  0.548700  1
  C  C138  1  1.070800  0.525300  0.484800  1
  C  C139  1  1.112600  0.590700  -0.262000  1
  C  C140  1  1.019400  0.388900  -0.201500  1
  C  C141  1  0.879000  0.135000  0.184500  1
  C  C142  1  1.193200  0.164000  0.193300  1
  C  C143  1  1.178000  0.712500  0.596700  1
  C  C144  1  1.049500  0.497800  0.547600  1
  C  C145  1  0.986900  0.343000  -0.255900  1
  C  C146  1  1.269000  0.186100  0.123400  1
  C  C147  1  1.322000  0.221400  0.247100  1
  C  C148  1  1.044800  0.473900  0.597700  1
  C  C149  1  0.900000  0.064800  0.265000  1.0
  Si  Si150  1  0.584100  0.163200  0.533900  1.0
  Si  Si151  1  0.808100  0.844200  0.526600  1
  Si  Si152  1  0.308100  0.174700  0.856100  1.0
  Si  Si153  1  0.520300  0.860100  0.868900  1
  Si  Si154  1  1.253000  0.873200  0.188900  1.0
  Si  Si155  1  1.019400  0.187500  0.178800  1
