# generated using pymatgen
data_SiH25C20S
_symmetry_space_group_name_H-M   'P 1'
_cell_length_a   8.23570000
_cell_length_b   10.33530000
_cell_length_c   12.07650000
_cell_angle_alpha   103.29300000
_cell_angle_beta   103.58310000
_cell_angle_gamma   106.00120000
_symmetry_Int_Tables_number   1
_chemical_formula_structural   SiH25C20S
_chemical_formula_sum   'Si2 H50 C40 S2'
_cell_volume   911.45607264
_cell_formula_units_Z   2
loop_
 _symmetry_equiv_pos_site_id
 _symmetry_equiv_pos_as_xyz
  1  'x, y, z'
loop_
 _atom_site_type_symbol
 _atom_site_label
 _atom_site_symmetry_multiplicity
 _atom_site_fract_x
 _atom_site_fract_y
 _atom_site_fract_z
 _atom_site_occupancy
  C  C1  1  0.382150  0.236830  0.287260  1
  C  C2  1  0.361000  0.520410  0.278370  1
  C  C3  1  0.090750  0.224570  0.083070  1
  C  C4  1  0.481660  0.344330  0.091780  1
  C  C5  1  0.409030  0.167860  0.353380  1
  C  C6  1  0.250200  0.526990  0.363780  1
  C  C7  1  0.339300  0.619260  0.203480  1
  C  C8  1  -0.040300  0.182340  0.150810  1
  C  C9  1  0.013300  0.288400  -0.010770  1
  C  C10  1  0.478400  0.196740  0.027530  1
  C  C11  1  0.673100  0.441310  0.167700  1
  C  C12  1  0.449960  0.084500  0.428440  1
  C  C13  1  0.570430  0.015250  0.409630  1
  C  C14  1  0.377100  0.068060  0.520980  1
  C  C15  1  0.622900  -0.068060  0.479020  1
  C  C16  1  0.429570  -0.015250  0.590370  1
  C  C17  1  0.249830  0.125520  0.560120  1
  C  C18  1  0.550040  -0.084500  0.571560  1
  C  C19  1  0.750170  -0.125520  0.439880  1
  C  C20  1  0.786510  -0.084110  0.342360  1
  C  C21  1  0.213490  0.084110  0.657640  1
  C  C22  1  0.161790  0.209540  0.514430  1
  C  C23  1  0.590970  -0.167860  0.646620  1
  C  C24  1  0.838210  -0.209540  0.485570  1
  C  C25  1  0.906640  -0.125630  0.290810  1
  C  C26  1  0.093360  0.125630  0.709190  1
  C  C27  1  0.042120  0.250180  0.565150  1
  C  C28  1  0.617850  -0.236830  0.712740  1
  C  C29  1  0.957880  -0.250180  0.434850  1
  C  C30  1  0.992340  -0.208120  0.338160  1
  C  C31  1  0.007660  0.208120  0.661840  1
  C  C32  1  0.639000  -0.520410  0.721630  1
  C  C33  1  0.909250  -0.224570  0.916930  1
  C  C34  1  0.518340  -0.344330  0.908220  1
  C  C35  1  0.749800  -0.526990  0.636220  1
  C  C36  1  0.660700  -0.619260  0.796520  1
  C  C37  1  1.040300  -0.182340  0.849190  1
  C  C38  1  0.986700  -0.288400  1.010770  1
  C  C39  1  0.521600  -0.196740  0.972470  1
  C  C40  1  0.326900  -0.441310  0.832300  1
  H  H41  1  0.488500  0.560400  0.330500  1
  H  H42  1  0.097900  0.134000  0.036600  1
  H  H43  1  0.439900  0.386300  0.028600  1
  H  H44  1  0.289800  0.624300  0.417700  1
  H  H45  1  0.265700  0.463500  0.411200  1
  H  H46  1  0.124100  0.497300  0.317100  1
  H  H47  1  0.214100  0.588800  0.154600  1
  H  H48  1  0.413300  0.615800  0.150900  1
  H  H49  1  0.376500  0.716500  0.257000  1
  H  H50  1  -0.060700  0.266600  0.192600  1
  H  H51  1  0.009400  0.140400  0.209400  1
  H  H52  1  -0.153500  0.113000  0.093800  1
  H  H53  1  -0.098400  0.217800  -0.068600  1
  H  H54  1  0.098700  0.316000  -0.053000  1
  H  H55  1  -0.009700  0.372100  0.029400  1
  H  H56  1  0.560700  0.205900  -0.019500  1
  H  H57  1  0.357500  0.138700  -0.026100  1
  H  H58  1  0.515100  0.151300  0.087100  1
  H  H59  1  0.715600  0.406100  0.233600  1
  H  H60  1  0.675200  0.537900  0.200700  1
  H  H61  1  0.750600  0.441800  0.117300  1
  H  H62  1  0.184200  0.238600  0.448700  1
  H  H63  1  0.815800  -0.238600  0.551300  1
  H  H64  1  0.929100  -0.097800  0.224600  1
  H  H65  1  0.070900  0.097800  0.775400  1
  H  H66  1  -0.017200  0.307200  0.533900  1
  H  H67  1  1.017200  -0.307200  0.466100  1
  H  H68  1  1.075300  -0.236400  0.304600  1
  H  H69  1  -0.075300  0.236400  0.695400  1
  H  H70  1  0.511500  -0.560400  0.669500  1
  H  H71  1  0.902100  -0.134000  0.963400  1
  H  H72  1  0.560100  -0.386300  0.971400  1
  H  H73  1  0.710200  -0.624300  0.582300  1
  H  H74  1  0.734300  -0.463500  0.588800  1
  H  H75  1  0.875900  -0.497300  0.682900  1
  H  H76  1  0.785900  -0.588800  0.845400  1
  H  H77  1  0.586700  -0.615800  0.849100  1
  H  H78  1  0.623500  -0.716500  0.743000  1
  H  H79  1  1.060700  -0.266600  0.807400  1
  H  H80  1  0.990600  -0.140400  0.790600  1
  H  H81  1  1.153500  -0.113000  0.906200  1
  H  H82  1  1.098400  -0.217800  1.068600  1
  H  H83  1  0.901300  -0.316000  1.053000  1
  H  H84  1  1.009700  -0.372100  0.970600  1
  H  H85  1  0.439300  -0.205900  1.019500  1
  H  H86  1  0.642500  -0.138700  1.026100  1
  H  H87  1  0.484900  -0.151300  0.912900  1
  H  H88  1  0.284400  -0.406100  0.766400  1
  H  H89  1  0.324800  -0.537900  0.799300  1
  H  H90  1  0.249400  -0.441800  0.882700  1
  S  S91  1  0.670470  0.023570  0.298330  1
  S  S92  1  0.329530  -0.023570  0.701670  1
  Si  Si93  1  0.325440  0.336010  0.183650  1.0
  Si  Si94  1  0.674560  -0.336010  0.816350  1
