# generated using pymatgen
data_SiH24(C10F)2
_symmetry_space_group_name_H-M   'P 1'
_cell_length_a   7.54290000
_cell_length_b   14.14760000
_cell_length_c   17.57950000
_cell_angle_alpha   70.73400000
_cell_angle_beta   81.73500000
_cell_angle_gamma   83.19800000
_symmetry_Int_Tables_number   1
_chemical_formula_structural   SiH24(C10F)2
_chemical_formula_sum   'Si4 H96 C80 F8'
_cell_volume   1747.45408075
_cell_formula_units_Z   4
loop_
 _symmetry_equiv_pos_site_id
 _symmetry_equiv_pos_as_xyz
  1  'x, y, z'
loop_
 _atom_site_type_symbol
 _atom_site_label
 _atom_site_symmetry_multiplicity
 _atom_site_fract_x
 _atom_site_fract_y
 _atom_site_fract_z
 _atom_site_occupancy
  C  C1  1  0.396900  0.628840  0.715320  1
  C  C2  1  0.018900  0.588600  0.794540  1
  C  C3  1  0.347100  0.486000  0.879420  1
  C  C4  1  0.245500  0.727720  0.837390  1
  C  C5  1  0.500600  0.645830  0.654450  1
  C  C6  1  -0.064900  0.680340  0.733200  1
  C  C7  1  0.020800  0.496210  0.767870  1
  C  C8  1  0.231800  0.445800  0.960400  1
  C  C9  1  0.540900  0.491500  0.891500  1
  C  C10  1  0.115300  0.728020  0.912170  1
  C  C11  1  0.429500  0.756670  0.844920  1
  C  C12  1  0.619170  0.674440  0.581160  1
  C  C13  1  0.667360  0.775290  0.550450  1
  C  C14  1  0.684910  0.605700  0.540440  1
  C  C15  1  0.608960  0.843640  0.592370  1
  C  C16  1  0.778140  0.807740  0.474600  1
  C  C17  1  0.792700  0.638640  0.463580  1
  C  C18  1  0.648900  0.502560  0.573120  1
  C  C19  1  0.657000  0.941250  0.562720  1
  C  C20  1  0.824800  0.907030  0.444620  1
  C  C21  1  0.836050  0.738830  0.431170  1
  C  C22  1  0.852000  0.567460  0.422460  1
  C  C23  1  0.711800  0.437180  0.532790  1
  C  C24  1  0.598900  1.012270  0.603840  1
  C  C25  1  0.768360  0.973800  0.486880  1
  C  C26  1  0.939500  0.773760  0.354090  1
  C  C27  1  0.813800  0.470700  0.455540  1
  C  C28  1  0.647000  1.107130  0.574330  1
  C  C29  1  0.815400  1.074500  0.458410  1
  C  C30  1  1.023900  0.807510  0.289070  1
  C  C31  1  0.758900  1.138700  0.500100  1
  C  C32  1  0.977800  0.886350  0.112190  1
  C  C33  1  1.321000  0.759290  0.172380  1
  C  C34  1  1.250900  0.976250  0.182300  1
  C  C35  1  0.818500  0.956700  0.128610  1
  C  C36  1  0.914800  0.789060  0.109300  1
  C  C37  1  1.420800  0.790050  0.087110  1
  C  C38  1  1.451300  0.727960  0.236990  1
  C  C39  1  1.144100  1.035150  0.234920  1
  C  C40  1  1.286200  1.045900  0.094900  1
  C  C41  1  0.603100  1.371160  0.284680  1
  C  C42  1  0.981100  1.411400  0.205460  1
  C  C43  1  0.652900  1.514000  0.120580  1
  C  C44  1  0.754500  1.272280  0.162610  1
  C  C45  1  0.499400  1.354170  0.345550  1
  C  C46  1  1.064900  1.319660  0.266800  1
  C  C47  1  0.979200  1.503790  0.232130  1
  C  C48  1  0.768200  1.554200  0.039600  1
  C  C49  1  0.459100  1.508500  0.108500  1
  C  C50  1  0.884700  1.271980  0.087830  1
  C  C51  1  0.570500  1.243330  0.155080  1
  C  C52  1  0.380830  1.325560  0.418840  1
  C  C53  1  0.332640  1.224710  0.449550  1
  C  C54  1  0.315090  1.394300  0.459560  1
  C  C55  1  0.391040  1.156360  0.407630  1
  C  C56  1  0.221860  1.192260  0.525400  1
  C  C57  1  0.207300  1.361360  0.536420  1
  C  C58  1  0.351100  1.497440  0.426880  1
  C  C59  1  0.343000  1.058750  0.437280  1
  C  C60  1  0.175200  1.092970  0.555380  1
  C  C61  1  0.163950  1.261170  0.568830  1
  C  C62  1  0.148000  1.432540  0.577540  1
  C  C63  1  0.288200  1.562820  0.467210  1
  C  C64  1  0.401100  0.987730  0.396160  1
  C  C65  1  0.231640  1.026200  0.513120  1
  C  C66  1  0.060500  1.226240  0.645910  1
  C  C67  1  0.186200  1.529300  0.544460  1
  C  C68  1  0.353000  0.892870  0.425670  1
  C  C69  1  0.184600  0.925500  0.541590  1
  C  C70  1  -0.023900  1.192490  0.710930  1
  C  C71  1  0.241100  0.861300  0.499900  1
  C  C72  1  0.022200  1.113650  0.887810  1
  C  C73  1  -0.321000  1.240710  0.827620  1
  C  C74  1  -0.250900  1.023750  0.817700  1
  C  C75  1  0.181500  1.043300  0.871390  1
  C  C76  1  0.085200  1.210940  0.890700  1
  C  C77  1  -0.420800  1.209950  0.912890  1
  C  C78  1  -0.451300  1.272040  0.763010  1
  C  C79  1  -0.144100  0.964850  0.765080  1
  C  C80  1  -0.286200  0.954100  0.905100  1
  F  F81  1  0.491720  0.983450  0.674030  1
  F  F82  1  0.591850  1.174140  0.613130  1
  F  F83  1  0.920100  1.105680  0.387840  1
  F  F84  1  0.804580  1.233400  0.473490  1
  F  F85  1  0.508280  1.016550  0.325970  1
  F  F86  1  0.408150  0.825860  0.386870  1
  F  F87  1  0.079900  0.894320  0.612160  1
  F  F88  1  0.195420  0.766600  0.526510  1
  H  H89  1  -0.058700  0.576600  0.847500  1
  H  H90  1  0.349300  0.435600  0.850600  1
  H  H91  1  0.197800  0.782900  0.791100  1
  H  H92  1  0.010000  0.694600  0.680900  1
  H  H93  1  -0.073100  0.738300  0.752600  1
  H  H94  1  -0.185500  0.667100  0.726700  1
  H  H95  1  -0.098700  0.491500  0.754300  1
  H  H96  1  0.053500  0.435900  0.812000  1
  H  H97  1  0.108900  0.501900  0.720100  1
  H  H98  1  0.287200  0.381200  0.992100  1
  H  H99  1  0.111400  0.436600  0.950600  1
  H  H100  1  0.223000  0.493800  0.990500  1
  H  H101  1  0.545300  0.539100  0.920800  1
  H  H102  1  0.612500  0.514000  0.838600  1
  H  H103  1  0.589600  0.424900  0.922900  1
  H  H104  1  0.155400  0.674700  0.959600  1
  H  H105  1  -0.005100  0.716400  0.904000  1
  H  H106  1  0.111900  0.793200  0.920900  1
  H  H107  1  0.418800  0.825800  0.846400  1
  H  H108  1  0.513800  0.751800  0.798200  1
  H  H109  1  0.473800  0.711100  0.894900  1
  H  H110  1  0.534500  0.822400  0.642400  1
  H  H111  1  0.579300  0.479400  0.624300  1
  H  H112  1  0.897000  0.929100  0.394000  1
  H  H113  1  0.919900  0.588500  0.370700  1
  H  H114  1  0.687900  0.368500  0.556000  1
  H  H115  1  0.855400  0.424400  0.427000  1
  H  H116  1  1.040300  0.920700  0.057500  1
  H  H117  1  1.256600  0.698900  0.178600  1
  H  H118  1  1.370500  0.954100  0.203300  1
  H  H119  1  0.735100  0.968700  0.087900  1
  H  H120  1  0.861400  1.020600  0.125800  1
  H  H121  1  0.756500  0.926000  0.182700  1
  H  H122  1  0.856800  0.752200  0.162800  1
  H  H123  1  1.018300  0.747700  0.094000  1
  H  H124  1  0.828800  0.804900  0.069200  1
  H  H125  1  1.487000  0.848800  0.078900  1
  H  H126  1  1.334200  0.806700  0.047200  1
  H  H127  1  1.505200  0.734400  0.080400  1
  H  H128  1  1.533400  0.671600  0.230000  1
  H  H129  1  1.383500  0.707500  0.291000  1
  H  H130  1  1.520600  0.784700  0.231400  1
  H  H131  1  1.207200  1.094000  0.229900  1
  H  H132  1  1.132100  0.992200  0.291700  1
  H  H133  1  1.024500  1.057100  0.217000  1
  H  H134  1  1.171700  1.069600  0.072100  1
  H  H135  1  1.362200  1.009100  0.062300  1
  H  H136  1  1.347300  1.103500  0.094400  1
  H  H137  1  1.058700  1.423400  0.152500  1
  H  H138  1  0.650700  1.564400  0.149400  1
  H  H139  1  0.802200  1.217100  0.208900  1
  H  H140  1  0.990000  1.305400  0.319100  1
  H  H141  1  1.073100  1.261700  0.247400  1
  H  H142  1  1.185500  1.332900  0.273300  1
  H  H143  1  1.098700  1.508500  0.245700  1
  H  H144  1  0.946500  1.564100  0.188000  1
  H  H145  1  0.891100  1.498100  0.279900  1
  H  H146  1  0.712800  1.618800  0.007900  1
  H  H147  1  0.888600  1.563400  0.049400  1
  H  H148  1  0.777000  1.506200  0.009500  1
  H  H149  1  0.454700  1.460900  0.079200  1
  H  H150  1  0.387500  1.486000  0.161400  1
  H  H151  1  0.410400  1.575100  0.077100  1
  H  H152  1  0.844600  1.325300  0.040400  1
  H  H153  1  1.005100  1.283600  0.096000  1
  H  H154  1  0.888100  1.206800  0.079100  1
  H  H155  1  0.581200  1.174200  0.153600  1
  H  H156  1  0.486200  1.248200  0.201800  1
  H  H157  1  0.526200  1.288900  0.105100  1
  H  H158  1  0.465500  1.177600  0.357600  1
  H  H159  1  0.420700  1.520600  0.375700  1
  H  H160  1  0.103000  1.070900  0.606000  1
  H  H161  1  0.080100  1.411500  0.629300  1
  H  H162  1  0.312100  1.631500  0.444000  1
  H  H163  1  0.144600  1.575600  0.573000  1
  H  H164  1  -0.040300  1.079300  0.942500  1
  H  H165  1  -0.256600  1.301100  0.821400  1
  H  H166  1  -0.370500  1.045900  0.796700  1
  H  H167  1  0.264900  1.031300  0.912100  1
  H  H168  1  0.138600  0.979400  0.874200  1
  H  H169  1  0.243500  1.074000  0.817300  1
  H  H170  1  0.143200  1.247800  0.837200  1
  H  H171  1  -0.018300  1.252300  0.906000  1
  H  H172  1  0.171200  1.195100  0.930800  1
  H  H173  1  -0.487000  1.151200  0.921100  1
  H  H174  1  -0.334200  1.193300  0.952800  1
  H  H175  1  -0.505200  1.265600  0.919600  1
  H  H176  1  -0.533400  1.328400  0.770000  1
  H  H177  1  -0.383500  1.292500  0.709000  1
  H  H178  1  -0.520600  1.215300  0.768600  1
  H  H179  1  -0.207200  0.906000  0.770100  1
  H  H180  1  -0.132100  1.007800  0.708300  1
  H  H181  1  -0.024500  0.942900  0.783000  1
  H  H182  1  -0.171700  0.930400  0.927900  1
  H  H183  1  -0.362200  0.990900  0.937700  1
  H  H184  1  -0.347300  0.896500  0.905600  1
  Si  Si185  1  0.249860  0.608860  0.811080  1.0
  Si  Si186  1  1.145780  0.859330  0.187690  1
  Si  Si187  1  0.750140  1.391140  0.188920  1.0
  Si  Si188  1  -0.145780  1.140670  0.812310  1
