# generated using pymatgen
data_SiH38C28SNO
_symmetry_space_group_name_H-M   'P 1'
_cell_length_a   8.71940000
_cell_length_b   9.50360000
_cell_length_c   16.90720000
_cell_angle_alpha   92.70100000
_cell_angle_beta   101.73800000
_cell_angle_gamma   107.10300000
_symmetry_Int_Tables_number   1
_chemical_formula_structural   SiH38C28SNO
_chemical_formula_sum   'Si2 H76 C56 S2 N2 O2'
_cell_volume   1302.47650252
_cell_formula_units_Z   2
loop_
 _symmetry_equiv_pos_site_id
 _symmetry_equiv_pos_as_xyz
  1  'x, y, z'
loop_
 _atom_site_type_symbol
 _atom_site_label
 _atom_site_symmetry_multiplicity
 _atom_site_fract_x
 _atom_site_fract_y
 _atom_site_fract_z
 _atom_site_occupancy
  C  C1  1  0.279900  0.345800  0.264860  1
  C  C2  1  -0.061700  0.259900  0.163800  1
  C  C3  1  0.252300  0.371300  0.086900  1
  C  C4  1  0.163000  0.062600  0.154500  1
  C  C5  1  0.350800  0.392400  0.333930  1
  C  C6  1  -0.192300  0.158400  0.093300  1
  C  C7  1  -0.077800  0.412000  0.176400  1
  C  C8  1  0.166000  0.305000  -0.000400  1
  C  C9  1  0.283800  0.536400  0.102400  1
  C  C10  1  0.335600  0.057100  0.151500  1
  C  C11  1  0.100800  -0.019800  0.223000  1
  C  C12  1  0.427700  0.447500  0.417370  1
  C  C13  1  -0.228300  0.422600  0.204300  1
  C  C14  1  0.414600  0.633900  0.064000  1
  C  C15  1  0.085000  -0.182100  0.218700  1
  C  C16  1  0.574500  0.418600  0.454300  1
  C  C17  1  0.352300  0.527400  0.461160  1
  C  C18  1  0.649200  0.338000  0.410850  1
  C  C19  1  0.647700  0.472600  0.538840  1
  C  C20  1  0.425500  0.581400  0.545700  1
  C  C21  1  0.207400  0.559000  0.423450  1
  C  C22  1  0.791300  0.310500  0.449000  1
  C  C23  1  0.572300  0.552500  0.582630  1
  C  C24  1  0.792600  0.441000  0.576550  1
  C  C25  1  0.350800  0.662000  0.589150  1
  C  C26  1  0.137500  0.638600  0.466590  1
  C  C27  1  0.862500  0.361400  0.533410  1
  C  C28  1  0.649200  0.607600  0.666070  1
  C  C29  1  0.208700  0.689500  0.551000  1
  C  C30  1  -0.004200  0.684900  0.442400  1
  C  C31  1  1.004200  0.315100  0.557600  1
  C  C32  1  1.041600  0.236600  0.500300  1
  C  C33  1  0.720100  0.654200  0.735140  1
  C  C34  1  -0.041600  0.763400  0.499700  1
  C  C35  1  1.156400  0.159100  0.488000  1
  C  C36  1  -0.156400  0.840900  0.512000  1
  C  C37  1  1.061700  0.740100  0.836200  1
  C  C38  1  0.747700  0.628700  0.913100  1
  C  C39  1  0.837000  0.937400  0.845500  1
  C  C40  1  1.306400  0.219800  0.637500  1
  C  C41  1  1.399600  0.086500  0.542500  1
  C  C42  1  1.192300  0.841600  0.906700  1
  C  C43  1  1.077800  0.588000  0.823600  1
  C  C44  1  0.834000  0.695000  1.000400  1
  C  C45  1  0.716200  0.463600  0.897600  1
  C  C46  1  0.664400  0.942900  0.848500  1
  C  C47  1  0.899200  1.019800  0.777000  1
  C  C48  1  -0.306400  0.780200  0.362500  1
  C  C49  1  -0.399600  0.913500  0.457500  1
  C  C50  1  1.475300  0.208400  0.682800  1
  C  C51  1  1.485200  0.079700  0.630800  1
  C  C52  1  1.228300  0.577400  0.795700  1
  C  C53  1  0.585400  0.366100  0.936000  1
  C  C54  1  0.915000  1.182100  0.781300  1
  C  C55  1  -0.475300  0.791600  0.317200  1
  C  C56  1  -0.485200  0.920300  0.369200  1
  H  H57  1  -0.086100  0.213400  0.213500  1
  H  H58  1  0.364300  0.359100  0.094700  1
  H  H59  1  0.086800  0.010400  0.102000  1
  H  H60  1  -0.302000  0.158300  0.098900  1
  H  H61  1  -0.185300  0.057400  0.094200  1
  H  H62  1  -0.173300  0.194400  0.041700  1
  H  H63  1  -0.076500  0.456300  0.124600  1
  H  H64  1  0.021000  0.473700  0.217000  1
  H  H65  1  0.055400  0.315600  -0.012900  1
  H  H66  1  0.157200  0.199700  -0.006700  1
  H  H67  1  0.229700  0.357000  -0.037600  1
  H  H68  1  0.316700  0.565400  0.161900  1
  H  H69  1  0.179000  0.557400  0.082000  1
  H  H70  1  0.412100  0.101200  0.203700  1
  H  H71  1  0.373100  0.112800  0.108000  1
  H  H72  1  0.332200  -0.046200  0.140900  1
  H  H73  1  0.176600  0.029900  0.275300  1
  H  H74  1  -0.008500  -0.009200  0.223800  1
  H  H75  1  -0.327800  0.359500  0.166000  1
  H  H76  1  -0.229200  0.525600  0.206600  1
  H  H77  1  -0.225700  0.389600  0.258500  1
  H  H78  1  0.523600  0.630700  0.091700  1
  H  H79  1  0.411800  0.736200  0.069300  1
  H  H80  1  0.392800  0.597700  0.006300  1
  H  H81  1  -0.006300  -0.236600  0.173400  1
  H  H82  1  0.063300  -0.219300  0.269700  1
  H  H83  1  0.187600  -0.196100  0.210200  1
  H  H84  1  0.601500  0.302500  0.355100  1
  H  H85  1  0.158200  0.524700  0.367700  1
  H  H86  1  0.841800  0.475300  0.632300  1
  H  H87  1  0.398500  0.697500  0.644900  1
  H  H88  1  -0.069400  0.661400  0.388300  1
  H  H89  1  1.069400  0.338600  0.611700  1
  H  H90  1  1.086100  0.786600  0.786500  1
  H  H91  1  0.635700  0.640900  0.905300  1
  H  H92  1  0.913200  0.989600  0.898000  1
  H  H93  1  1.217500  0.161700  0.662100  1
  H  H94  1  1.307600  0.324400  0.641100  1
  H  H95  1  1.479200  0.144200  0.512700  1
  H  H96  1  1.345000  -0.014100  0.513000  1
  H  H97  1  1.302000  0.841700  0.901100  1
  H  H98  1  1.185300  0.942600  0.905800  1
  H  H99  1  1.173300  0.805600  0.958300  1
  H  H100  1  1.076500  0.543700  0.875400  1
  H  H101  1  0.979000  0.526300  0.783000  1
  H  H102  1  0.944600  0.684400  1.012900  1
  H  H103  1  0.842800  0.800300  1.006700  1
  H  H104  1  0.770300  0.643000  1.037600  1
  H  H105  1  0.683300  0.434600  0.838100  1
  H  H106  1  0.821000  0.442600  0.918000  1
  H  H107  1  0.587900  0.898800  0.796300  1
  H  H108  1  0.626900  0.887200  0.892000  1
  H  H109  1  0.667800  1.046200  0.859100  1
  H  H110  1  0.823400  0.970100  0.724700  1
  H  H111  1  1.008500  1.009200  0.776200  1
  H  H112  1  -0.217500  0.838300  0.337900  1
  H  H113  1  -0.307600  0.675600  0.358900  1
  H  H114  1  -0.479200  0.855800  0.487300  1
  H  H115  1  -0.345000  1.014100  0.487000  1
  H  H116  1  1.566400  0.299800  0.682900  1
  H  H117  1  1.475000  0.186400  0.739400  1
  H  H118  1  1.429700  -0.015000  0.649700  1
  H  H119  1  1.601900  0.086100  0.634200  1
  H  H120  1  1.327800  0.640500  0.834000  1
  H  H121  1  1.229200  0.474400  0.793400  1
  H  H122  1  1.225700  0.610400  0.741500  1
  H  H123  1  0.476400  0.369300  0.908300  1
  H  H124  1  0.588200  0.263800  0.930700  1
  H  H125  1  0.607200  0.402300  0.993700  1
  H  H126  1  1.006300  1.236600  0.826600  1
  H  H127  1  0.936700  1.219300  0.730300  1
  H  H128  1  0.812400  1.196100  0.789800  1
  H  H129  1  -0.566400  0.700200  0.317100  1
  H  H130  1  -0.475000  0.813600  0.260600  1
  H  H131  1  -0.429700  1.015000  0.350300  1
  H  H132  1  -0.601900  0.913900  0.365800  1
  N  N133  1  1.278700  0.161000  0.552700  1
  N  N134  1  -0.278700  0.839000  0.447300  1
  O  O135  1  1.147700  0.096000  0.422000  1
  O  O136  1  -0.147700  0.904000  0.578000  1
  S  S137  1  0.904120  0.214150  0.404760  1
  S  S138  1  0.095880  0.785850  0.595240  1
  Si  Si139  1  0.154070  0.258520  0.163580  1.0
  Si  Si140  1  0.845930  0.741480  0.836420  1
