# generated using pymatgen
data_SiH32C27SF
_symmetry_space_group_name_H-M   'P 1'
_cell_length_a   8.94830000
_cell_length_b   16.27140000
_cell_length_c   17.44060000
_cell_angle_alpha   102.54100000
_cell_angle_beta   92.71000000
_cell_angle_gamma   100.73900000
_symmetry_Int_Tables_number   1
_chemical_formula_structural   SiH32C27SF
_chemical_formula_sum   'Si4 H128 C108 S4 F4'
_cell_volume   2425.16136124
_cell_formula_units_Z   4
loop_
 _symmetry_equiv_pos_site_id
 _symmetry_equiv_pos_as_xyz
  1  'x, y, z'
loop_
 _atom_site_type_symbol
 _atom_site_label
 _atom_site_symmetry_multiplicity
 _atom_site_fract_x
 _atom_site_fract_y
 _atom_site_fract_z
 _atom_site_occupancy
  C  C1  1  0.583500  0.707900  0.427400  1
  C  C2  1  0.608200  0.897400  0.438000  1
  C  C3  1  0.424600  0.804000  0.555100  1
  C  C4  1  0.776700  0.831700  0.567900  1
  C  C5  1  0.566700  0.642400  0.378300  1
  C  C6  1  0.680800  0.881400  0.361800  1
  C  C7  1  0.274500  0.748200  0.512100  1
  C  C8  1  0.775100  0.886600  0.650000  1
  C  C9  1  0.545300  0.567300  0.316100  1
  C  C10  1  0.839700  0.866200  0.369000  1
  C  C11  1  0.675000  0.954700  0.318200  1
  C  C12  1  0.209300  0.787700  0.450100  1
  C  C13  1  0.156900  0.734600  0.572200  1
  C  C14  1  0.756900  0.977700  0.649300  1
  C  C15  1  0.919400  0.890900  0.702300  1
  C  C16  1  0.658200  0.516800  0.305700  1
  C  C17  1  0.410700  0.547300  0.263600  1
  C  C18  1  0.788500  0.535200  0.357500  1
  C  C19  1  0.639200  0.444200  0.238500  1
  C  C20  1  0.392400  0.475100  0.195400  1
  C  C21  1  0.295000  0.594600  0.272800  1
  C  C22  1  0.901600  0.485000  0.347000  1
  C  C23  1  0.753300  0.395900  0.227300  1
  C  C24  1  0.506200  0.424400  0.185800  1
  C  C25  1  0.260200  0.456500  0.143700  1
  C  C26  1  0.163600  0.574900  0.222400  1
  C  C27  1  1.036400  0.504000  0.400900  1
  C  C28  1  0.883600  0.414300  0.280300  1
  C  C29  1  0.483900  0.350100  0.122000  1
  C  C30  1  0.145600  0.504000  0.153900  1
  C  C31  1  0.046100  0.622500  0.232200  1
  C  C32  1  1.145000  0.454700  0.386700  1
  C  C33  1  1.003400  0.367300  0.267200  1
  C  C34  1  0.467100  0.286100  0.072500  1
  C  C35  1  0.014400  0.484900  0.099200  1
  C  C36  1  -0.080900  0.602100  0.180400  1
  C  C37  1  1.130000  0.386300  0.319200  1
  C  C38  1  -0.096200  0.532400  0.112600  1
  C  C39  1  -0.219000  0.638000  0.188000  1
  C  C40  1  1.261000  0.349300  0.320400  1
  C  C41  1  1.362300  0.383600  0.379800  1
  C  C42  1  0.252800  0.114200  -0.004300  1
  C  C43  1  0.508300  0.183600  -0.095800  1
  C  C44  1  0.597200  0.130500  0.057200  1
  C  C45  1  -0.311000  0.605000  0.122000  1
  C  C46  1  0.139800  0.134700  -0.063100  1
  C  C47  1  0.677300  0.209000  -0.106900  1
  C  C48  1  0.588700  0.132600  0.144900  1
  C  C49  1  0.107800  0.222500  -0.036100  1
  C  C50  1  -0.009500  0.067000  -0.080500  1
  C  C51  1  0.744000  0.303100  -0.063900  1
  C  C52  1  0.702100  0.194400  -0.192700  1
  C  C53  1  0.450200  0.072500  0.161300  1
  C  C54  1  0.734800  0.113700  0.180000  1
  C  C55  1  0.416500  0.292100  0.572600  1
  C  C56  1  0.391800  0.102600  0.562000  1
  C  C57  1  0.575400  0.196000  0.444900  1
  C  C58  1  0.223300  0.168300  0.432100  1
  C  C59  1  0.433300  0.357600  0.621700  1
  C  C60  1  0.319200  0.118600  0.638200  1
  C  C61  1  0.725500  0.251800  0.487900  1
  C  C62  1  0.224900  0.113400  0.350000  1
  C  C63  1  0.454700  0.432700  0.683900  1
  C  C64  1  0.160300  0.133800  0.631000  1
  C  C65  1  0.325000  0.045300  0.681800  1
  C  C66  1  0.790700  0.212300  0.549900  1
  C  C67  1  0.843100  0.265400  0.427800  1
  C  C68  1  0.243100  0.022300  0.350700  1
  C  C69  1  0.080600  0.109100  0.297700  1
  C  C70  1  0.341800  0.483200  0.694300  1
  C  C71  1  0.589300  0.452700  0.736400  1
  C  C72  1  0.211500  0.464800  0.642500  1
  C  C73  1  0.360800  0.555800  0.761500  1
  C  C74  1  0.607600  0.524900  0.804600  1
  C  C75  1  0.705000  0.405400  0.727200  1
  C  C76  1  0.098400  0.515000  0.653000  1
  C  C77  1  0.246700  0.604100  0.772700  1
  C  C78  1  0.493800  0.575600  0.814200  1
  C  C79  1  0.739800  0.543500  0.856300  1
  C  C80  1  0.836400  0.425100  0.777600  1
  C  C81  1  -0.036400  0.496000  0.599100  1
  C  C82  1  0.116400  0.585700  0.719700  1
  C  C83  1  0.516100  0.649900  0.878000  1
  C  C84  1  0.854400  0.496000  0.846100  1
  C  C85  1  0.953900  0.377500  0.767800  1
  C  C86  1  -0.145000  0.545300  0.613300  1
  C  C87  1  -0.003400  0.632700  0.732800  1
  C  C88  1  0.532900  0.713900  0.927500  1
  C  C89  1  0.985600  0.515100  0.900800  1
  C  C90  1  1.080900  0.397900  0.819600  1
  C  C91  1  -0.130000  0.613700  0.680800  1
  C  C92  1  1.096200  0.467600  0.887400  1
  C  C93  1  1.219000  0.362000  0.812000  1
  C  C94  1  -0.261000  0.650700  0.679600  1
  C  C95  1  -0.362300  0.616400  0.620200  1
  C  C96  1  0.747200  0.885800  1.004300  1
  C  C97  1  0.491700  0.816400  1.095800  1
  C  C98  1  0.402800  0.869500  0.942800  1
  C  C99  1  1.311000  0.395000  0.878000  1
  C  C100  1  0.860200  0.865300  1.063100  1
  C  C101  1  0.322700  0.791000  1.106900  1
  C  C102  1  0.411300  0.867400  0.855100  1
  C  C103  1  0.892200  0.777500  1.036100  1
  C  C104  1  1.009500  0.933000  1.080500  1
  C  C105  1  0.256000  0.696900  1.063900  1
  C  C106  1  0.297900  0.805600  1.192700  1
  C  C107  1  0.549800  0.927500  0.838700  1
  C  C108  1  0.265200  0.886300  0.820000  1
  F  F109  1  1.502100  0.368300  0.395400  1
  F  F110  1  -0.451200  0.618600  0.107500  1
  F  F111  1  -0.502100  0.631700  0.604600  1
  F  F112  1  1.451200  0.381400  0.892500  1
  H  H113  1  0.502700  0.904400  0.426100  1
  H  H114  1  0.664600  0.952800  0.471300  1
  H  H115  1  0.448900  0.781400  0.601600  1
  H  H116  1  0.406700  0.862800  0.575300  1
  H  H117  1  0.795500  0.775100  0.573000  1
  H  H118  1  0.864000  0.859100  0.543100  1
  H  H119  1  0.617200  0.827800  0.327400  1
  H  H120  1  0.294600  0.690900  0.485400  1
  H  H121  1  0.685800  0.859200  0.674400  1
  H  H122  1  0.904700  0.915600  0.405600  1
  H  H123  1  0.879700  0.858700  0.317100  1
  H  H124  1  0.839200  0.814300  0.388900  1
  H  H125  1  0.735900  1.008700  0.350100  1
  H  H126  1  0.568900  0.960800  0.310000  1
  H  H127  1  0.716500  0.940700  0.267100  1
  H  H128  1  0.113000  0.750400  0.424600  1
  H  H129  1  0.282200  0.793700  0.410500  1
  H  H130  1  0.190600  0.844400  0.475200  1
  H  H131  1  0.132700  0.789900  0.597300  1
  H  H132  1  0.199600  0.709600  0.612500  1
  H  H133  1  0.063600  0.695500  0.545000  1
  H  H134  1  0.755900  1.010300  0.703500  1
  H  H135  1  0.660800  0.975600  0.618900  1
  H  H136  1  0.842500  1.005900  0.624900  1
  H  H137  1  1.006900  0.925300  0.684300  1
  H  H138  1  0.937100  0.832700  0.699100  1
  H  H139  1  0.906800  0.917600  0.757000  1
  H  H140  1  0.801900  0.582900  0.401400  1
  H  H141  1  0.307500  0.642900  0.316200  1
  H  H142  1  0.742100  0.349300  0.182400  1
  H  H143  1  0.248000  0.409200  0.099400  1
  H  H144  1  1.050100  0.550300  0.446000  1
  H  H145  1  0.056100  0.670100  0.276100  1
  H  H146  1  0.994600  0.322100  0.221400  1
  H  H147  1  0.003700  0.439300  0.053600  1
  H  H148  1  -0.239200  0.679100  0.231900  1
  H  H149  1  1.274000  0.302200  0.280000  1
  H  H150  1  0.255600  0.052300  -0.020700  1
  H  H151  1  0.212500  0.123700  0.048100  1
  H  H152  1  0.467900  0.126700  -0.131600  1
  H  H153  1  0.455000  0.225200  -0.113500  1
  H  H154  1  0.587400  0.069800  0.028800  1
  H  H155  1  0.700400  0.161200  0.050500  1
  H  H156  1  0.188400  0.132900  -0.113700  1
  H  H157  1  0.733100  0.171300  -0.083300  1
  H  H158  1  0.581500  0.192300  0.172200  1
  H  H159  1  0.064000  0.227200  0.014800  1
  H  H160  1  0.035200  0.232800  -0.075100  1
  H  H161  1  0.203000  0.265200  -0.030200  1
  H  H162  1  -0.067900  0.073300  -0.034200  1
  H  H163  1  0.014100  0.009400  -0.093000  1
  H  H164  1  -0.070000  0.075200  -0.125600  1
  H  H165  1  0.851500  0.318000  -0.073700  1
  H  H166  1  0.736000  0.309900  -0.007200  1
  H  H167  1  0.686700  0.341200  -0.083700  1
  H  H168  1  0.661400  0.134000  -0.218600  1
  H  H169  1  0.811800  0.208300  -0.198500  1
  H  H170  1  0.649600  0.231300  -0.217100  1
  H  H171  1  0.443200  0.015100  0.127300  1
  H  H172  1  0.358100  0.094100  0.150400  1
  H  H173  1  0.459400  0.069200  0.216700  1
  H  H174  1  0.728200  0.116300  0.236300  1
  H  H175  1  0.822700  0.156400  0.172900  1
  H  H176  1  0.747100  0.056100  0.153100  1
  H  H177  1  0.497300  0.095600  0.573900  1
  H  H178  1  0.335400  0.047200  0.528700  1
  H  H179  1  0.551100  0.218600  0.398400  1
  H  H180  1  0.593300  0.137200  0.424700  1
  H  H181  1  0.204500  0.224900  0.427000  1
  H  H182  1  0.136000  0.140900  0.456900  1
  H  H183  1  0.382800  0.172200  0.672600  1
  H  H184  1  0.705400  0.309100  0.514600  1
  H  H185  1  0.314200  0.140800  0.325600  1
  H  H186  1  0.095300  0.084400  0.594400  1
  H  H187  1  0.120300  0.141300  0.682900  1
  H  H188  1  0.160800  0.185700  0.611100  1
  H  H189  1  0.264100  -0.008700  0.649900  1
  H  H190  1  0.431100  0.039200  0.690000  1
  H  H191  1  0.283500  0.059300  0.732900  1
  H  H192  1  0.887000  0.249600  0.575400  1
  H  H193  1  0.717800  0.206300  0.589500  1
  H  H194  1  0.809400  0.155600  0.524800  1
  H  H195  1  0.867300  0.210100  0.402700  1
  H  H196  1  0.800400  0.290400  0.387500  1
  H  H197  1  0.936400  0.304500  0.455000  1
  H  H198  1  0.244100  -0.010300  0.296500  1
  H  H199  1  0.339200  0.024400  0.381100  1
  H  H200  1  0.157500  -0.005900  0.375100  1
  H  H201  1  -0.006900  0.074700  0.315700  1
  H  H202  1  0.062900  0.167300  0.300900  1
  H  H203  1  0.093200  0.082400  0.243000  1
  H  H204  1  0.198100  0.417100  0.598600  1
  H  H205  1  0.692500  0.357100  0.683800  1
  H  H206  1  0.257900  0.650700  0.817600  1
  H  H207  1  0.752000  0.590800  0.900600  1
  H  H208  1  -0.050100  0.449700  0.554000  1
  H  H209  1  0.943900  0.329900  0.723900  1
  H  H210  1  0.005400  0.677900  0.778600  1
  H  H211  1  0.996300  0.560700  0.946400  1
  H  H212  1  1.239200  0.320900  0.768100  1
  H  H213  1  -0.274000  0.697800  0.720000  1
  H  H214  1  0.744400  0.947700  1.020700  1
  H  H215  1  0.787500  0.876300  0.951900  1
  H  H216  1  0.532100  0.873300  1.131600  1
  H  H217  1  0.545000  0.774800  1.113500  1
  H  H218  1  0.412600  0.930200  0.971200  1
  H  H219  1  0.299600  0.838800  0.949500  1
  H  H220  1  0.811600  0.867100  1.113700  1
  H  H221  1  0.266900  0.828700  1.083300  1
  H  H222  1  0.418500  0.807700  0.827800  1
  H  H223  1  0.936000  0.772800  0.985200  1
  H  H224  1  0.964800  0.767200  1.075100  1
  H  H225  1  0.797000  0.734800  1.030200  1
  H  H226  1  1.067900  0.926700  1.034200  1
  H  H227  1  0.985900  0.990600  1.093000  1
  H  H228  1  1.070000  0.924800  1.125600  1
  H  H229  1  0.148500  0.682000  1.073700  1
  H  H230  1  0.264000  0.690100  1.007200  1
  H  H231  1  0.313300  0.658800  1.083700  1
  H  H232  1  0.338600  0.866000  1.218600  1
  H  H233  1  0.188200  0.791700  1.198500  1
  H  H234  1  0.350400  0.768700  1.217100  1
  H  H235  1  0.556800  0.984900  0.872700  1
  H  H236  1  0.641900  0.905900  0.849600  1
  H  H237  1  0.540600  0.930800  0.783300  1
  H  H238  1  0.271800  0.883700  0.763700  1
  H  H239  1  0.177300  0.843600  0.827100  1
  H  H240  1  0.252900  0.943900  0.846900  1
  S  S241  1  1.315800  0.471200  0.448400  1
  S  S242  1  -0.266200  0.516800  0.055600  1
  S  S243  1  -0.315800  0.528800  0.551600  1
  S  S244  1  1.266200  0.483200  0.944400  1
  Si  Si245  1  0.598600  0.813190  0.498730  1.0
  Si  Si246  1  0.454000  0.177190  0.006850  1
  Si  Si247  1  0.401400  0.186810  0.501270  1.0
  Si  Si248  1  0.546000  0.822810  0.993150  1
