# generated using pymatgen
data_SiH23C22
_symmetry_space_group_name_H-M   'P 1'
_cell_length_a   7.67580000
_cell_length_b   10.43180000
_cell_length_c   12.02990000
_cell_angle_alpha   67.15700000
_cell_angle_beta   88.89900000
_cell_angle_gamma   76.48200000
_symmetry_Int_Tables_number   1
_chemical_formula_structural   SiH23C22
_chemical_formula_sum   'Si2 H46 C44'
_cell_volume   860.36903056
_cell_formula_units_Z   2
loop_
 _symmetry_equiv_pos_site_id
 _symmetry_equiv_pos_as_xyz
  1  'x, y, z'
loop_
 _atom_site_type_symbol
 _atom_site_label
 _atom_site_symmetry_multiplicity
 _atom_site_fract_x
 _atom_site_fract_y
 _atom_site_fract_z
 _atom_site_occupancy
  C  C1  1  0.487000  -0.083640  0.290880  1
  C  C2  1  0.697700  0.120320  0.291880  1
  C  C3  1  0.573000  0.126220  0.051760  1
  C  C4  1  0.295100  0.230960  0.202990  1
  C  C5  1  0.482300  -0.205800  0.352970  1
  C  C6  1  0.726500  0.044500  0.429110  1
  C  C7  1  0.861300  -0.001900  0.353140  1
  C  C8  1  0.766400  0.083850  0.023270  1
  C  C9  1  0.674600  0.239050  -0.015830  1
  C  C10  1  0.311900  0.386710  0.145620  1
  C  C11  1  0.141100  0.212700  0.136600  1
  C  C12  1  0.488000  -0.352430  0.427460  1
  C  C13  1  0.352900  -0.416630  0.410630  1
  C  C14  1  0.634600  -0.433470  0.516420  1
  C  C15  1  0.204400  -0.338100  0.325050  1
  C  C16  1  0.365400  -0.566530  0.483580  1
  C  C17  1  0.647100  -0.583370  0.589370  1
  C  C18  1  0.770700  -0.372170  0.534330  1
  C  C19  1  0.069900  -0.399690  0.309260  1
  C  C20  1  0.512000  -0.647570  0.572540  1
  C  C21  1  0.229300  -0.627830  0.465670  1
  C  C22  1  0.795600  -0.661900  0.674950  1
  C  C23  1  0.916900  -0.450730  0.617810  1
  C  C24  1  -0.082100  -0.320820  0.223570  1
  C  C25  1  0.083100  -0.549270  0.382190  1
  C  C26  1  0.517700  -0.794200  0.647030  1
  C  C27  1  0.930100  -0.600310  0.690740  1
  C  C28  1  1.057600  -0.388680  0.633490  1
  C  C29  1  -0.212700  -0.383860  0.212430  1
  C  C30  1  -0.057600  -0.611320  0.366510  1
  C  C31  1  0.513000  -0.916360  0.709120  1
  C  C32  1  1.082100  -0.679180  0.776430  1
  C  C33  1  1.200800  -0.468900  0.714440  1
  C  C34  1  -0.200800  -0.531100  0.285560  1
  C  C35  1  1.212700  -0.616140  0.787570  1
  C  C36  1  0.302300  -1.120320  0.708120  1
  C  C37  1  0.427000  -1.126220  0.948240  1
  C  C38  1  0.704900  -1.230960  0.797010  1
  C  C39  1  0.273500  -1.044500  0.570890  1
  C  C40  1  0.138700  -0.998100  0.646860  1
  C  C41  1  0.233600  -1.083850  0.976730  1
  C  C42  1  0.325400  -1.239050  1.015830  1
  C  C43  1  0.688100  -1.386710  0.854380  1
  C  C44  1  0.858900  -1.212700  0.863400  1
  H  H45  1  0.722200  0.217800  0.258100  1
  H  H46  1  0.481200  0.115000  0.000600  1
  H  H47  1  0.264400  0.210800  0.288300  1
  H  H48  1  0.760600  0.097400  0.474600  1
  H  H49  1  0.648200  -0.019900  0.470800  1
  H  H50  1  0.866500  -0.095100  0.347900  1
  H  H51  1  0.978900  0.022100  0.351700  1
  H  H52  1  0.860800  0.041500  0.091200  1
  H  H53  1  0.788800  0.044700  -0.040100  1
  H  H54  1  0.640200  0.295600  -0.103300  1
  H  H55  1  0.712200  0.292400  0.028000  1
  H  H56  1  0.348300  0.407900  0.063100  1
  H  H57  1  0.402400  0.399900  0.193900  1
  H  H58  1  0.195700  0.451800  0.143300  1
  H  H59  1  0.027900  0.275300  0.143300  1
  H  H60  1  0.132900  0.112600  0.172900  1
  H  H61  1  0.163500  0.238400  0.051100  1
  H  H62  1  0.196000  -0.239800  0.276600  1
  H  H63  1  0.762100  -0.273400  0.487500  1
  H  H64  1  0.237900  -0.726600  0.512500  1
  H  H65  1  0.804000  -0.760200  0.723400  1
  H  H66  1  -0.091700  -0.222700  0.173600  1
  H  H67  1  1.050500  -0.290100  0.586600  1
  H  H68  1  -0.313200  -0.329300  0.155300  1
  H  H69  1  -0.050500  -0.709900  0.413400  1
  H  H70  1  1.091700  -0.777300  0.826400  1
  H  H71  1  1.294200  -0.426600  0.722500  1
  H  H72  1  -0.294200  -0.573400  0.277500  1
  H  H73  1  1.313200  -0.670700  0.844700  1
  H  H74  1  0.277800  -1.217800  0.741900  1
  H  H75  1  0.518800  -1.115000  0.999400  1
  H  H76  1  0.735600  -1.210800  0.711700  1
  H  H77  1  0.239400  -1.097400  0.525400  1
  H  H78  1  0.351800  -0.980100  0.529200  1
  H  H79  1  0.133500  -0.904900  0.652100  1
  H  H80  1  0.021100  -1.022100  0.648300  1
  H  H81  1  0.139200  -1.041500  0.908800  1
  H  H82  1  0.211200  -1.044700  1.040100  1
  H  H83  1  0.359800  -1.295600  1.103300  1
  H  H84  1  0.287800  -1.292400  0.972000  1
  H  H85  1  0.651700  -1.407900  0.936900  1
  H  H86  1  0.597600  -1.399900  0.806100  1
  H  H87  1  0.804300  -1.451800  0.856700  1
  H  H88  1  0.972100  -1.275300  0.856700  1
  H  H89  1  0.867100  -1.112600  0.827100  1
  H  H90  1  0.836500  -1.238400  0.948900  1
  Si  Si91  1  0.513230  0.100510  0.207730  1.0
  Si  Si92  1  0.486770  -1.100510  0.792270  1
