# generated using pymatgen
data_SiH13C14S
_symmetry_space_group_name_H-M   'P 1'
_cell_length_a   10.45700000
_cell_length_b   10.51000000
_cell_length_c   12.41800000
_cell_angle_alpha   90.00000000
_cell_angle_beta   114.22100000
_cell_angle_gamma   90.00000000
_symmetry_Int_Tables_number   1
_chemical_formula_structural   SiH13C14S
_chemical_formula_sum   'Si4 H52 C56 S4'
_cell_volume   1244.63480459
_cell_formula_units_Z   4
loop_
 _symmetry_equiv_pos_site_id
 _symmetry_equiv_pos_as_xyz
  1  'x, y, z'
loop_
 _atom_site_type_symbol
 _atom_site_label
 _atom_site_symmetry_multiplicity
 _atom_site_fract_x
 _atom_site_fract_y
 _atom_site_fract_z
 _atom_site_occupancy
  C  C1  1  0.176620  0.160860  0.225220  1
  C  C2  1  -0.128490  0.127710  0.061330  1
  C  C3  1  0.077110  0.265080  -0.019190  1
  C  C4  1  -0.011940  0.388950  0.161620  1
  C  C5  1  0.273680  0.113150  0.306140  1
  C  C6  1  0.387400  0.056140  0.403430  1
  C  C7  1  0.466270  0.131160  0.503610  1
  C  C8  1  0.419270  -0.073750  0.398060  1
  C  C9  1  0.434630  0.261070  0.510110  1
  C  C10  1  0.580730  0.073750  0.601940  1
  C  C11  1  0.533730  -0.131160  0.496390  1
  C  C12  1  0.342060  -0.149050  0.297010  1
  C  C13  1  0.509810  0.331410  0.608640  1
  C  C14  1  0.612600  -0.056140  0.596570  1
  C  C15  1  0.657940  0.149050  0.702990  1
  C  C16  1  0.565370  -0.261070  0.489890  1
  C  C17  1  0.376960  -0.273820  0.293310  1
  C  C18  1  0.497500  0.465600  0.631200  1
  C  C19  1  0.623040  0.273820  0.706690  1
  C  C20  1  0.726320  -0.113150  0.693860  1
  C  C21  1  0.490190  -0.331410  0.391360  1
  C  C22  1  0.591400  0.505200  0.737100  1
  C  C23  1  0.823380  -0.160860  0.774780  1
  C  C24  1  0.502500  -0.465600  0.368800  1
  C  C25  1  0.408600  -0.505200  0.262900  1
  C  C26  1  1.128490  -0.127710  0.938670  1
  C  C27  1  0.922890  -0.265080  1.019190  1
  C  C28  1  1.011940  -0.388950  0.838380  1
  C  C29  1  0.823380  0.660860  0.274780  1
  C  C30  1  1.128490  0.627710  0.438670  1
  C  C31  1  0.922890  0.765080  0.519190  1
  C  C32  1  1.011940  0.888950  0.338380  1
  C  C33  1  0.726320  0.613150  0.193860  1
  C  C34  1  0.612600  0.556140  0.096570  1
  C  C35  1  0.533730  0.631160  -0.003610  1
  C  C36  1  0.580730  0.426250  0.101940  1
  C  C37  1  0.565370  0.761070  -0.010110  1
  C  C38  1  0.419270  0.573750  -0.101940  1
  C  C39  1  0.466270  0.368840  0.003610  1
  C  C40  1  0.657940  0.350950  0.202990  1
  C  C41  1  0.490190  0.831410  -0.108640  1
  C  C42  1  0.387400  0.443860  -0.096570  1
  C  C43  1  0.342060  0.649050  -0.202990  1
  C  C44  1  0.434630  0.238930  0.010110  1
  C  C45  1  0.623040  0.226180  0.206690  1
  C  C46  1  0.502500  0.965600  -0.131200  1
  C  C47  1  0.376960  0.773820  -0.206690  1
  C  C48  1  0.273680  0.386850  -0.193860  1
  C  C49  1  0.509810  0.168590  0.108640  1
  C  C50  1  0.408600  1.005200  -0.237100  1
  C  C51  1  0.176620  0.339140  -0.274780  1
  C  C52  1  0.497500  0.034400  0.131200  1
  C  C53  1  0.591400  -0.005200  0.237100  1
  C  C54  1  -0.128490  0.372290  -0.438670  1
  C  C55  1  0.077110  0.234920  -0.519190  1
  C  C56  1  -0.011940  0.111050  -0.338380  1
  H  H57  1  -0.111300  0.053000  0.024800  1
  H  H58  1  -0.210400  0.170500  0.006400  1
  H  H59  1  -0.143100  0.103600  0.130000  1
  H  H60  1  0.155400  0.322400  0.005500  1
  H  H61  1  -0.000500  0.301600  -0.084300  1
  H  H62  1  0.102800  0.185800  -0.043200  1
  H  H63  1  -0.032000  0.372800  0.229200  1
  H  H64  1  -0.091500  0.428900  0.101000  1
  H  H65  1  0.068000  0.444100  0.183700  1
  H  H66  1  0.362000  0.299000  0.446800  1
  H  H67  1  0.267800  -0.113400  0.233400  1
  H  H68  1  0.732200  0.113400  0.766600  1
  H  H69  1  0.638000  -0.299000  0.553200  1
  H  H70  1  0.430900  0.519000  0.577500  1
  H  H71  1  0.596400  0.588600  0.763600  1
  H  H72  1  0.569100  -0.519000  0.422500  1
  H  H73  1  0.403600  -0.588600  0.236400  1
  H  H74  1  1.111300  -0.053000  0.975200  1
  H  H75  1  1.210400  -0.170500  0.993600  1
  H  H76  1  1.143100  -0.103600  0.870000  1
  H  H77  1  0.844600  -0.322400  0.994500  1
  H  H78  1  1.000500  -0.301600  1.084300  1
  H  H79  1  0.897200  -0.185800  1.043200  1
  H  H80  1  1.032000  -0.372800  0.770800  1
  H  H81  1  1.091500  -0.428900  0.899000  1
  H  H82  1  0.932000  -0.444100  0.816300  1
  H  H83  1  1.111300  0.553000  0.475200  1
  H  H84  1  1.210400  0.670500  0.493600  1
  H  H85  1  1.143100  0.603600  0.370000  1
  H  H86  1  0.844600  0.822400  0.494500  1
  H  H87  1  1.000500  0.801600  0.584300  1
  H  H88  1  0.897200  0.685800  0.543200  1
  H  H89  1  1.032000  0.872800  0.270800  1
  H  H90  1  1.091500  0.928900  0.399000  1
  H  H91  1  0.932000  0.944100  0.316300  1
  H  H92  1  0.638000  0.799000  0.053200  1
  H  H93  1  0.732200  0.386600  0.266600  1
  H  H94  1  0.267800  0.613400  -0.266600  1
  H  H95  1  0.362000  0.201000  -0.053200  1
  H  H96  1  0.569100  1.019000  -0.077500  1
  H  H97  1  0.403600  1.088600  -0.263600  1
  H  H98  1  0.430900  -0.019000  0.077500  1
  H  H99  1  0.596400  -0.088600  0.263600  1
  H  H100  1  -0.111300  0.447000  -0.475200  1
  H  H101  1  -0.210400  0.329500  -0.493600  1
  H  H102  1  -0.143100  0.396400  -0.370000  1
  H  H103  1  0.155400  0.177600  -0.494500  1
  H  H104  1  -0.000500  0.198400  -0.584300  1
  H  H105  1  0.102800  0.314200  -0.543200  1
  H  H106  1  -0.032000  0.127200  -0.270800  1
  H  H107  1  -0.091500  0.071100  -0.399000  1
  H  H108  1  0.068000  0.055900  -0.316300  1
  S  S109  1  0.296900  -0.384500  0.180110  1
  S  S110  1  0.703100  0.384500  0.819890  1
  S  S111  1  0.703100  0.115500  0.319890  1
  S  S112  1  0.296900  0.884500  -0.319890  1
  Si  Si113  1  0.026050  0.236850  0.105580  1.0
  Si  Si114  1  0.973950  -0.236850  0.894420  1
  Si  Si115  1  0.973950  0.736850  0.394420  1.0
  Si  Si116  1  0.026050  0.263150  -0.394420  1
