# generated using pymatgen
data_SiH29C24O
_symmetry_space_group_name_H-M   'P 1'
_cell_length_a   8.68560000
_cell_length_b   10.87180000
_cell_length_c   12.00160000
_cell_angle_alpha   104.80610000
_cell_angle_beta   92.85120000
_cell_angle_gamma   106.30910000
_symmetry_Int_Tables_number   1
_chemical_formula_structural   SiH29C24O
_chemical_formula_sum   'Si2 H58 C48 O2'
_cell_volume   1042.51557015
_cell_formula_units_Z   2
loop_
 _symmetry_equiv_pos_site_id
 _symmetry_equiv_pos_as_xyz
  1  'x, y, z'
loop_
 _atom_site_type_symbol
 _atom_site_label
 _atom_site_symmetry_multiplicity
 _atom_site_fract_x
 _atom_site_fract_y
 _atom_site_fract_z
 _atom_site_occupancy
  C  C1  1  0.498670  0.761660  0.710540  1
  C  C2  1  0.589620  0.706760  0.936140  1
  C  C3  1  0.463220  0.475520  0.703620  1
  C  C4  1  0.234340  0.632390  0.823940  1
  C  C5  1  0.505800  0.834790  0.649070  1
  C  C6  1  0.566730  0.835310  1.012620  1
  C  C7  1  0.768020  0.728640  0.918190  1
  C  C8  1  0.605540  0.489760  0.631830  1
  C  C9  1  0.467170  0.378320  0.776430  1
  C  C10  1  0.165430  0.543600  0.901780  1
  C  C11  1  0.119010  0.593880  0.711130  1
  C  C12  1  0.505010  0.919240  0.575350  1
  C  C13  1  0.385760  0.986430  0.581280  1
  C  C14  1  0.619960  0.931910  0.495670  1
  C  C15  1  0.272780  0.976440  0.661120  1
  C  C16  1  0.380040  1.068090  0.504330  1
  C  C17  1  0.614240  1.013570  0.418720  1
  C  C18  1  0.739260  0.866200  0.488800  1
  C  C19  1  0.157410  1.043240  0.668810  1
  C  C20  1  0.494990  1.080760  0.424650  1
  C  C21  1  0.260740  1.133800  0.511200  1
  C  C22  1  0.727220  1.023560  0.338880  1
  C  C23  1  0.849080  0.875620  0.409190  1
  C  C24  1  0.047090  1.036830  0.753500  1
  C  C25  1  0.150920  1.124380  0.590810  1
  C  C26  1  0.494200  1.165210  0.350930  1
  C  C27  1  0.842590  0.956760  0.331190  1
  C  C28  1  0.966860  0.804870  0.399820  1
  C  C29  1  -0.059340  1.108050  0.760600  1
  C  C30  1  0.033140  1.195130  0.600180  1
  C  C31  1  0.501330  1.238340  0.289460  1
  C  C32  1  0.952910  0.963170  0.246500  1
  C  C33  1  1.066680  0.812650  0.316790  1
  C  C34  1  -0.184160  1.122640  0.841390  1
  C  C35  1  -0.066680  1.187350  0.683210  1
  C  C36  1  1.059340  0.891950  0.239400  1
  C  C37  1  1.197470  0.748980  0.286640  1
  C  C38  1  -0.197470  1.251020  0.713360  1
  C  C39  1  0.410380  1.293240  0.063860  1
  C  C40  1  0.536780  1.524480  0.296380  1
  C  C41  1  0.765660  1.367610  0.176060  1
  C  C42  1  1.184160  0.877360  0.158610  1
  C  C43  1  0.433270  1.164690  -0.012620  1
  C  C44  1  0.231980  1.271360  0.081810  1
  C  C45  1  0.394460  1.510240  0.368170  1
  C  C46  1  0.532830  1.621680  0.223570  1
  C  C47  1  0.834570  1.456400  0.098220  1
  C  C48  1  0.880990  1.406120  0.288870  1
  H  H49  1  0.560900  0.638200  0.979700  1
  H  H50  1  0.362100  0.433700  0.646900  1
  H  H51  1  0.237900  0.725200  0.866900  1
  H  H52  1  0.640400  0.866200  1.085500  1
  H  H53  1  0.454700  0.817500  1.029700  1
  H  H54  1  0.590400  0.904300  0.971500  1
  H  H55  1  0.798300  0.790000  0.870100  1
  H  H56  1  0.783700  0.642900  0.879200  1
  H  H57  1  0.835900  0.766900  0.993800  1
  H  H58  1  0.707600  0.521300  0.684000  1
  H  H59  1  0.603400  0.554200  0.588100  1
  H  H60  1  0.596400  0.402900  0.577600  1
  H  H61  1  0.468300  0.292600  0.725200  1
  H  H62  1  0.371100  0.364700  0.816700  1
  H  H63  1  0.564700  0.415800  0.833700  1
  H  H64  1  0.058100  0.550400  0.917600  1
  H  H65  1  0.237600  0.573000  0.975200  1
  H  H66  1  0.156600  0.450600  0.862300  1
  H  H67  1  0.105800  0.501100  0.668100  1
  H  H68  1  0.164000  0.652800  0.663400  1
  H  H69  1  0.013600  0.603200  0.729800  1
  H  H70  1  0.275600  0.922100  0.711400  1
  H  H71  1  0.744600  0.813800  0.540400  1
  H  H72  1  0.255400  1.186200  0.459600  1
  H  H73  1  0.724400  1.077900  0.288600  1
  H  H74  1  0.048500  0.983000  0.804400  1
  H  H75  1  0.974800  0.753000  0.451400  1
  H  H76  1  0.025200  1.247000  0.548600  1
  H  H77  1  0.951500  1.017000  0.195600  1
  H  H78  1  -0.278200  1.040700  0.821000  1
  H  H79  1  -0.137600  1.140400  0.923000  1
  H  H80  1  1.159900  0.653200  0.283400  1
  H  H81  1  1.295200  0.793900  0.344800  1
  H  H82  1  -0.159900  1.346800  0.716600  1
  H  H83  1  -0.295200  1.206100  0.655200  1
  H  H84  1  0.439100  1.361800  0.020300  1
  H  H85  1  0.637900  1.566300  0.353100  1
  H  H86  1  0.762100  1.274800  0.133100  1
  H  H87  1  1.278200  0.959300  0.179000  1
  H  H88  1  1.137600  0.859600  0.077000  1
  H  H89  1  0.359600  1.133800  -0.085500  1
  H  H90  1  0.545300  1.182500  -0.029700  1
  H  H91  1  0.409600  1.095700  0.028500  1
  H  H92  1  0.201700  1.210000  0.129900  1
  H  H93  1  0.216300  1.357100  0.120800  1
  H  H94  1  0.164100  1.233100  0.006200  1
  H  H95  1  0.292400  1.478700  0.316000  1
  H  H96  1  0.396600  1.445800  0.411900  1
  H  H97  1  0.403600  1.597100  0.422400  1
  H  H98  1  0.531700  1.707400  0.274800  1
  H  H99  1  0.628900  1.635300  0.183300  1
  H  H100  1  0.435300  1.584200  0.166300  1
  H  H101  1  0.941900  1.449600  0.082400  1
  H  H102  1  0.762400  1.427000  0.024800  1
  H  H103  1  0.843400  1.549400  0.137700  1
  H  H104  1  0.894200  1.498900  0.331900  1
  H  H105  1  0.836000  1.347200  0.336600  1
  H  H106  1  0.986400  1.396800  0.270200  1
  O  O107  1  -0.231200  1.234800  0.825300  1
  O  O108  1  1.231200  0.765200  0.174700  1
  Si  Si109  1  0.448350  0.639850  0.795740  1.0
  Si  Si110  1  0.551650  1.360150  0.204260  1
