# generated using pymatgen
data_SiH24C20SI
_symmetry_space_group_name_H-M   'P 1'
_cell_length_a   8.99920000
_cell_length_b   10.49220000
_cell_length_c   11.26330000
_cell_angle_alpha   108.81440000
_cell_angle_beta   95.94680000
_cell_angle_gamma   92.10740000
_symmetry_Int_Tables_number   1
_chemical_formula_structural   SiH24C20SI
_chemical_formula_sum   'Si2 H48 C40 S2 I2'
_cell_volume   998.46861812
_cell_formula_units_Z   2
loop_
 _symmetry_equiv_pos_site_id
 _symmetry_equiv_pos_as_xyz
  1  'x, y, z'
loop_
 _atom_site_type_symbol
 _atom_site_label
 _atom_site_symmetry_multiplicity
 _atom_site_fract_x
 _atom_site_fract_y
 _atom_site_fract_z
 _atom_site_occupancy
  C  C1  1  0.616600  0.726600  0.671300  1
  C  C2  1  0.709800  0.718400  0.924900  1
  C  C3  1  0.500100  0.476700  0.722700  1
  C  C4  1  0.830400  0.522500  0.694500  1
  C  C5  1  0.583800  0.807300  0.619100  1
  C  C6  1  0.586400  0.810200  0.975700  1
  C  C7  1  0.766000  0.641700  1.011600  1
  C  C8  1  0.357500  0.534100  0.769500  1
  C  C9  1  0.537800  0.359200  0.769300  1
  C  C10  1  0.797000  0.432800  0.554700  1
  C  C11  1  0.963400  0.625700  0.713600  1
  C  C12  1  0.542900  0.905000  0.559200  1
  C  C13  1  0.636500  0.935600  0.477600  1
  C  C14  1  0.407300  0.967300  0.582900  1
  C  C15  1  0.771900  0.872500  0.452900  1
  C  C16  1  0.592700  1.032700  0.417100  1
  C  C17  1  0.363500  1.064400  0.522400  1
  C  C18  1  0.314200  0.939500  0.666000  1
  C  C19  1  0.855000  0.897000  0.374000  1
  C  C20  1  0.457100  1.095000  0.440800  1
  C  C21  1  0.685800  1.060500  0.334000  1
  C  C22  1  0.228100  1.127500  0.547100  1
  C  C23  1  0.185000  1.009000  0.689000  1
  C  C24  1  0.815000  0.991000  0.311000  1
  C  C25  1  0.416200  1.192700  0.380900  1
  C  C26  1  0.145000  1.103000  0.626000  1
  C  C27  1  0.075600  0.999300  0.771700  1
  C  C28  1  0.924400  1.000700  0.228300  1
  C  C29  1  1.033200  0.922000  0.226400  1
  C  C30  1  0.383400  1.273400  0.328700  1
  C  C31  1  -0.033200  1.078000  0.773600  1
  C  C32  1  0.290200  1.281600  0.075100  1
  C  C33  1  0.499900  1.523300  0.277300  1
  C  C34  1  0.169600  1.477500  0.305500  1
  C  C35  1  0.413600  1.189800  0.024300  1
  C  C36  1  0.234000  1.358300  -0.011600  1
  C  C37  1  0.642500  1.465900  0.230500  1
  C  C38  1  0.462200  1.640800  0.230700  1
  C  C39  1  0.203000  1.567200  0.445300  1
  C  C40  1  0.036600  1.374300  0.286400  1
  H  H41  1  0.796700  0.780700  0.925000  1
  H  H42  1  0.478000  0.437600  0.628700  1
  H  H43  1  0.859200  0.462500  0.745000  1
  H  H44  1  0.502400  0.756000  0.988600  1
  H  H45  1  0.551800  0.854800  0.914800  1
  H  H46  1  0.626100  0.878600  1.056300  1
  H  H47  1  0.800900  0.705600  1.095800  1
  H  H48  1  0.849100  0.589400  0.977500  1
  H  H49  1  0.684600  0.580300  1.017600  1
  H  H50  1  0.274400  0.464300  0.736600  1
  H  H51  1  0.336100  0.610700  0.740200  1
  H  H52  1  0.369400  0.564700  0.862100  1
  H  H53  1  0.569000  0.393400  0.860600  1
  H  H54  1  0.619400  0.312900  0.726000  1
  H  H55  1  0.449200  0.295700  0.751200  1
  H  H56  1  0.775400  0.489700  0.502000  1
  H  H57  1  0.710100  0.369400  0.544500  1
  H  H58  1  0.884200  0.382200  0.528900  1
  H  H59  1  1.046200  0.579800  0.671800  1
  H  H60  1  0.996100  0.668000  0.804200  1
  H  H61  1  0.933000  0.695100  0.677000  1
  H  H62  1  0.802600  0.811000  0.495200  1
  H  H63  1  0.338800  0.874300  0.705600  1
  H  H64  1  0.661200  1.125700  0.294400  1
  H  H65  1  0.197400  1.189000  0.504800  1
  H  H66  1  0.082500  0.940400  0.820500  1
  H  H67  1  0.917500  1.059600  0.179500  1
  H  H68  1  0.203300  1.219300  0.075000  1
  H  H69  1  0.522000  1.562400  0.371300  1
  H  H70  1  0.140800  1.537500  0.255000  1
  H  H71  1  0.497600  1.244000  0.011400  1
  H  H72  1  0.448200  1.145200  0.085200  1
  H  H73  1  0.373900  1.121400  -0.056300  1
  H  H74  1  0.199100  1.294400  -0.095800  1
  H  H75  1  0.150900  1.410600  0.022500  1
  H  H76  1  0.315400  1.419700  -0.017600  1
  H  H77  1  0.725600  1.535700  0.263400  1
  H  H78  1  0.663900  1.389300  0.259800  1
  H  H79  1  0.630600  1.435300  0.137900  1
  H  H80  1  0.431000  1.606600  0.139400  1
  H  H81  1  0.380600  1.687100  0.274000  1
  H  H82  1  0.550800  1.704300  0.248800  1
  H  H83  1  0.224600  1.510300  0.498000  1
  H  H84  1  0.289900  1.630600  0.455500  1
  H  H85  1  0.115800  1.617800  0.471100  1
  H  H86  1  -0.046200  1.420200  0.328200  1
  H  H87  1  0.003900  1.332000  0.195800  1
  H  H88  1  0.067000  1.304900  0.323000  1
  I  I89  1  1.208200  0.894030  0.116940  1
  I  I90  1  -0.208200  1.105970  0.883060  1
  S  S91  1  1.023100  0.825500  0.328200  1
  S  S92  1  -0.023100  1.174500  0.671800  1
  Si  Si93  1  0.661400  0.607400  0.755200  1.0
  Si  Si94  1  0.338600  1.392600  0.244800  1
