# generated using pymatgen
data_SiH18C17SCl
_symmetry_space_group_name_H-M   'P 1'
_cell_length_a   7.08380000
_cell_length_b   10.30720000
_cell_length_c   11.17580000
_cell_angle_alpha   95.74850000
_cell_angle_beta   90.01540000
_cell_angle_gamma   98.91170000
_symmetry_Int_Tables_number   1
_chemical_formula_structural   SiH18C17SCl
_chemical_formula_sum   'Si2 H36 C34 S2 Cl2'
_cell_volume   801.98362210
_cell_formula_units_Z   2
loop_
 _symmetry_equiv_pos_site_id
 _symmetry_equiv_pos_as_xyz
  1  'x, y, z'
loop_
 _atom_site_type_symbol
 _atom_site_label
 _atom_site_symmetry_multiplicity
 _atom_site_fract_x
 _atom_site_fract_y
 _atom_site_fract_z
 _atom_site_occupancy
  C  C1  1  0.839100  0.803000  0.289310  1
  C  C2  1  0.643100  0.537600  0.339940  1
  C  C3  1  0.902600  0.706200  0.532880  1
  C  C4  1  0.524100  0.794100  0.464300  1
  C  C5  1  0.890900  0.860660  0.203850  1
  C  C6  1  0.796500  0.478200  0.266700  1
  C  C7  1  0.992600  0.840800  0.595500  1
  C  C8  1  0.373300  0.796900  0.365600  1
  C  C9  1  0.947400  0.930920  0.101300  1
  C  C10  1  0.839200  1.027190  0.069800  1
  C  C11  1  1.107000  0.902020  0.033500  1
  C  C12  1  0.678800  1.056220  0.136960  1
  C  C13  1  0.893000  1.097980  -0.033500  1
  C  C14  1  1.160800  0.972810  -0.069800  1
  C  C15  1  1.215400  0.805470  0.063860  1
  C  C16  1  0.572000  1.149000  0.107500  1
  C  C17  1  1.052600  1.069080  -0.101300  1
  C  C18  1  0.784600  1.194530  -0.063860  1
  C  C19  1  1.321200  0.943780  -0.136960  1
  C  C20  1  1.378600  0.778700  -0.005700  1
  C  C21  1  0.621400  1.221300  0.005700  1
  C  C22  1  1.109100  1.139340  -0.203850  1
  C  C23  1  1.428000  0.851000  -0.107500  1
  C  C24  1  1.505400  0.686700  0.010500  1
  C  C25  1  0.494600  1.313300  -0.010500  1
  C  C26  1  0.358600  1.310800  0.073100  1
  C  C27  1  1.160900  1.197000  -0.289310  1
  C  C28  1  1.641400  0.689200  -0.073100  1
  C  C29  1  1.356900  1.462400  -0.339940  1
  C  C30  1  1.097400  1.293800  -0.532880  1
  C  C31  1  1.475900  1.205900  -0.464300  1
  C  C32  1  1.203500  1.521800  -0.266700  1
  C  C33  1  1.007400  1.159200  -0.595500  1
  C  C34  1  1.626700  1.203100  -0.365600  1
  Cl  Cl35  1  0.176400  1.403450  0.089210  1
  Cl  Cl36  1  1.823600  0.596550  -0.089210  1
  H  H37  1  0.600600  0.480700  0.404200  1
  H  H38  1  0.531400  0.538100  0.286800  1
  H  H39  1  0.838400  0.652900  0.594400  1
  H  H40  1  1.006600  0.660300  0.499300  1
  H  H41  1  0.461700  0.748600  0.531200  1
  H  H42  1  0.575100  0.885900  0.496400  1
  H  H43  1  0.830200  0.528800  0.198000  1
  H  H44  1  0.747600  0.386300  0.237600  1
  H  H45  1  0.910200  0.481400  0.317600  1
  H  H46  1  1.067500  0.891800  0.537500  1
  H  H47  1  1.076200  0.827700  0.661700  1
  H  H48  1  0.891400  0.888800  0.627400  1
  H  H49  1  0.436500  0.831800  0.295000  1
  H  H50  1  0.281100  0.853500  0.396000  1
  H  H51  1  0.306500  0.707200  0.343200  1
  H  H52  1  0.643900  1.009800  0.204900  1
  H  H53  1  1.180100  0.757700  0.131000  1
  H  H54  1  0.819900  1.242300  -0.131000  1
  H  H55  1  1.356100  0.990200  -0.204900  1
  H  H56  1  1.494800  0.630300  0.073200  1
  H  H57  1  0.505200  1.369700  -0.073200  1
  H  H58  1  1.399400  1.519300  -0.404200  1
  H  H59  1  1.468600  1.461900  -0.286800  1
  H  H60  1  1.161600  1.347100  -0.594400  1
  H  H61  1  0.993400  1.339700  -0.499300  1
  H  H62  1  1.538300  1.251400  -0.531200  1
  H  H63  1  1.424900  1.114100  -0.496400  1
  H  H64  1  1.169800  1.471200  -0.198000  1
  H  H65  1  1.252400  1.613700  -0.237600  1
  H  H66  1  1.089800  1.518600  -0.317600  1
  H  H67  1  0.932500  1.108200  -0.537500  1
  H  H68  1  0.923800  1.172300  -0.661700  1
  H  H69  1  1.108600  1.111200  -0.627400  1
  H  H70  1  1.563500  1.168200  -0.295000  1
  H  H71  1  1.718900  1.146500  -0.396000  1
  H  H72  1  1.693500  1.292800  -0.343200  1
  S  S73  1  0.373600  1.198890  0.179930  1
  S  S74  1  1.626400  0.801110  -0.179930  1
  Si  Si75  1  0.726490  0.709480  0.409910  1.0
  Si  Si76  1  1.273510  1.290520  -0.409910  1
