# generated using pymatgen
data_Si4C49
_symmetry_space_group_name_H-M   'P 1'
_cell_length_a   6.95160000
_cell_length_b   33.04010000
_cell_length_c   20.54850000
_cell_angle_alpha   90.00000000
_cell_angle_beta   90.00000000
_cell_angle_gamma   90.00000000
_symmetry_Int_Tables_number   1
_chemical_formula_structural   Si4C49
_chemical_formula_sum   'Si16 C196'
_cell_volume   4719.61151840
_cell_formula_units_Z   4
loop_
 _symmetry_equiv_pos_site_id
 _symmetry_equiv_pos_as_xyz
  1  'x, y, z'
loop_
 _atom_site_type_symbol
 _atom_site_label
 _atom_site_symmetry_multiplicity
 _atom_site_fract_x
 _atom_site_fract_y
 _atom_site_fract_z
 _atom_site_occupancy
  C  C1  1  0.212000  0.694500  0.370600  1
  C  C2  1  -0.212000  0.694500  0.370600  1
  C  C3  1  0.000000  0.768100  0.415200  1
  C  C4  1  0.000000  0.696500  0.504000  1
  C  C5  1  0.000000  0.803100  0.420600  1
  C  C6  1  -0.000000  0.846800  0.431800  1
  C  C7  1  -0.000000  0.862400  0.495300  1
  C  C8  1  -0.000000  0.872600  0.376600  1
  C  C9  1  -0.000000  0.904400  0.503800  1
  C  C10  1  0.000000  0.835100  0.547700  1
  C  C11  1  -0.000000  0.915000  0.384500  1
  C  C12  1  0.000000  0.919700  0.568700  1
  C  C13  1  0.000000  0.930600  0.446800  1
  C  C14  1  -0.000000  0.851800  0.606500  1
  C  C15  1  0.000000  0.892100  0.620800  1
  C  C16  1  -0.000000  0.973800  0.457100  1
  C  C17  1  0.000000  0.823000  0.660800  1
  C  C18  1  -0.000000  0.909400  0.684600  1
  C  C19  1  -0.000000  1.010900  0.471300  1
  C  C20  1  0.000000  0.838500  0.721000  1
  C  C21  1  0.000000  0.881900  0.739400  1
  C  C22  1  0.277000  1.078300  0.523000  1
  C  C23  1  -0.277000  1.078300  0.523000  1
  C  C24  1  0.000000  1.064400  0.592000  1
  C  C25  1  0.000000  1.098200  0.439000  1
  C  C26  1  -0.212000  1.305500  -0.129400  1
  C  C27  1  0.212000  1.305500  -0.129400  1
  C  C28  1  0.000000  1.231900  -0.084800  1
  C  C29  1  0.000000  1.303500  0.004000  1
  C  C30  1  0.000000  1.196900  -0.079400  1
  C  C31  1  0.000000  1.153200  -0.068200  1
  C  C32  1  0.000000  1.137600  -0.004700  1
  C  C33  1  0.000000  1.127400  -0.123400  1
  C  C34  1  0.000000  1.095600  0.003800  1
  C  C35  1  0.000000  1.164900  0.047700  1
  C  C36  1  0.000000  1.085000  -0.115500  1
  C  C37  1  -0.000000  1.080300  0.068700  1
  C  C38  1  -0.000000  1.069400  -0.053200  1
  C  C39  1  0.000000  1.148200  0.106500  1
  C  C40  1  0.000000  1.107900  0.120800  1
  C  C41  1  0.000000  1.026200  -0.042900  1
  C  C42  1  0.000000  1.177000  0.160800  1
  C  C43  1  0.000000  1.090600  0.184600  1
  C  C44  1  0.000000  0.989100  -0.028700  1
  C  C45  1  0.000000  1.161500  0.221000  1
  C  C46  1  0.000000  1.118100  0.239400  1
  C  C47  1  -0.277000  0.921700  0.023000  1
  C  C48  1  0.277000  0.921700  0.023000  1
  C  C49  1  0.000000  0.935600  0.092000  1
  C  C50  1  0.000000  0.901800  -0.061000  1
  C  C51  1  -0.288000  0.194500  0.370600  1
  C  C52  1  -0.712000  0.194500  0.370600  1
  C  C53  1  -0.500000  0.268100  0.415200  1
  C  C54  1  -0.500000  0.196500  0.504000  1
  C  C55  1  -0.500000  0.303100  0.420600  1
  C  C56  1  -0.500000  0.346800  0.431800  1
  C  C57  1  -0.500000  0.362400  0.495300  1
  C  C58  1  -0.500000  0.372600  0.376600  1
  C  C59  1  -0.500000  0.404400  0.503800  1
  C  C60  1  -0.500000  0.335100  0.547700  1
  C  C61  1  -0.500000  0.415000  0.384500  1
  C  C62  1  -0.500000  0.419700  0.568700  1
  C  C63  1  -0.500000  0.430600  0.446800  1
  C  C64  1  -0.500000  0.351800  0.606500  1
  C  C65  1  -0.500000  0.392100  0.620800  1
  C  C66  1  -0.500000  0.473800  0.457100  1
  C  C67  1  -0.500000  0.323000  0.660800  1
  C  C68  1  -0.500000  0.409400  0.684600  1
  C  C69  1  -0.500000  0.510900  0.471300  1
  C  C70  1  -0.500000  0.338500  0.721000  1
  C  C71  1  -0.500000  0.381900  0.739400  1
  C  C72  1  -0.223000  0.578300  0.523000  1
  C  C73  1  -0.777000  0.578300  0.523000  1
  C  C74  1  -0.500000  0.564400  0.592000  1
  C  C75  1  -0.500000  0.598200  0.439000  1
  C  C76  1  0.288000  0.805500  -0.129400  1
  C  C77  1  0.712000  0.805500  -0.129400  1
  C  C78  1  0.500000  0.731900  -0.084800  1
  C  C79  1  0.500000  0.803500  0.004000  1
  C  C80  1  0.500000  0.696900  -0.079400  1
  C  C81  1  0.500000  0.653200  -0.068200  1
  C  C82  1  0.500000  0.637600  -0.004700  1
  C  C83  1  0.500000  0.627400  -0.123400  1
  C  C84  1  0.500000  0.595600  0.003800  1
  C  C85  1  0.500000  0.664900  0.047700  1
  C  C86  1  0.500000  0.585000  -0.115500  1
  C  C87  1  0.500000  0.580300  0.068700  1
  C  C88  1  0.500000  0.569400  -0.053200  1
  C  C89  1  0.500000  0.648200  0.106500  1
  C  C90  1  0.500000  0.607900  0.120800  1
  C  C91  1  0.500000  0.526200  -0.042900  1
  C  C92  1  0.500000  0.677000  0.160800  1
  C  C93  1  0.500000  0.590600  0.184600  1
  C  C94  1  0.500000  0.489100  -0.028700  1
  C  C95  1  0.500000  0.661500  0.221000  1
  C  C96  1  0.500000  0.618100  0.239400  1
  C  C97  1  0.223000  0.421700  0.023000  1
  C  C98  1  0.777000  0.421700  0.023000  1
  C  C99  1  0.500000  0.435600  0.092000  1
  C  C100  1  0.500000  0.401800  -0.061000  1
  C  C101  1  -0.500000  0.779500  0.263000  1
  C  C102  1  -0.500000  0.862700  0.322200  1
  C  C103  1  -0.287000  0.848400  0.195000  1
  C  C104  1  -0.713000  0.848400  0.195000  1
  C  C105  1  -0.500000  0.876800  0.373100  1
  C  C106  1  -0.500000  0.894400  0.438200  1
  C  C107  1  -0.500000  0.869000  0.493500  1
  C  C108  1  -0.500000  0.936900  0.442600  1
  C  C109  1  -0.500000  0.827300  0.487300  1
  C  C110  1  -0.500000  0.888000  0.556900  1
  C  C111  1  -0.500000  0.955600  0.503700  1
  C  C112  1  -0.500000  0.804500  0.542200  1
  C  C113  1  -0.500000  0.933200  0.558400  1
  C  C114  1  -0.500000  0.864000  0.611600  1
  C  C115  1  -0.500000  0.760900  0.537600  1
  C  C116  1  -0.500000  0.821300  0.603800  1
  C  C117  1  -0.500000  0.950600  0.624200  1
  C  C118  1  -0.500000  0.737300  0.590600  1
  C  C119  1  -0.500000  0.797600  0.666000  1
  C  C120  1  -0.500000  0.967800  0.675300  1
  C  C121  1  -0.500000  0.755700  0.659000  1
  C  C122  1  -0.715000  1.021000  0.762700  1
  C  C123  1  -0.285000  1.021000  0.762700  1
  C  C124  1  -0.500000  0.945000  0.811900  1
  C  C125  1  -0.500000  1.220500  0.763000  1
  C  C126  1  -0.500000  1.137300  0.822200  1
  C  C127  1  -0.713000  1.151600  0.695000  1
  C  C128  1  -0.287000  1.151600  0.695000  1
  C  C129  1  -0.500000  1.123200  0.873100  1
  C  C130  1  -0.500000  1.105600  0.938200  1
  C  C131  1  -0.500000  1.131000  0.993500  1
  C  C132  1  -0.500000  1.063100  0.942600  1
  C  C133  1  -0.500000  1.172700  0.987300  1
  C  C134  1  -0.500000  1.112000  1.056900  1
  C  C135  1  -0.500000  1.044400  1.003700  1
  C  C136  1  -0.500000  1.195500  1.042200  1
  C  C137  1  -0.500000  1.066800  1.058400  1
  C  C138  1  -0.500000  1.136000  1.111600  1
  C  C139  1  -0.500000  1.239100  1.037600  1
  C  C140  1  -0.500000  1.178700  1.103800  1
  C  C141  1  -0.500000  1.049400  1.124200  1
  C  C142  1  -0.500000  1.262700  1.090600  1
  C  C143  1  -0.500000  1.202400  1.166000  1
  C  C144  1  -0.500000  1.032200  1.175300  1
  C  C145  1  -0.500000  1.244300  1.159000  1
  C  C146  1  -0.285000  0.979000  1.262700  1
  C  C147  1  -0.715000  0.979000  1.262700  1
  C  C148  1  -0.500000  1.055000  1.311900  1
  C  C149  1  0.000000  1.279500  0.263000  1
  C  C150  1  0.000000  1.362700  0.322200  1
  C  C151  1  0.213000  1.348400  0.195000  1
  C  C152  1  -0.213000  1.348400  0.195000  1
  C  C153  1  -0.000000  1.376800  0.373100  1
  C  C154  1  -0.000000  1.394400  0.438200  1
  C  C155  1  0.000000  1.369000  0.493500  1
  C  C156  1  0.000000  1.436900  0.442600  1
  C  C157  1  -0.000000  1.327300  0.487300  1
  C  C158  1  -0.000000  1.388000  0.556900  1
  C  C159  1  -0.000000  1.455600  0.503700  1
  C  C160  1  0.000000  1.304500  0.542200  1
  C  C161  1  0.000000  1.433200  0.558400  1
  C  C162  1  0.000000  1.364000  0.611600  1
  C  C163  1  -0.000000  1.260900  0.537600  1
  C  C164  1  -0.000000  1.321300  0.603800  1
  C  C165  1  -0.000000  1.450600  0.624200  1
  C  C166  1  -0.000000  1.237300  0.590600  1
  C  C167  1  0.000000  1.297600  0.666000  1
  C  C168  1  0.000000  1.467800  0.675300  1
  C  C169  1  0.000000  1.255700  0.659000  1
  C  C170  1  -0.215000  1.521000  0.762700  1
  C  C171  1  0.215000  1.521000  0.762700  1
  C  C172  1  -0.000000  1.445000  0.811900  1
  C  C173  1  0.000000  0.720500  0.763000  1
  C  C174  1  0.000000  0.637300  0.822200  1
  C  C175  1  -0.213000  0.651600  0.695000  1
  C  C176  1  0.213000  0.651600  0.695000  1
  C  C177  1  0.000000  0.623200  0.873100  1
  C  C178  1  0.000000  0.605600  0.938200  1
  C  C179  1  0.000000  0.631000  0.993500  1
  C  C180  1  0.000000  0.563100  0.942600  1
  C  C181  1  0.000000  0.672700  0.987300  1
  C  C182  1  0.000000  0.612000  1.056900  1
  C  C183  1  0.000000  0.544400  1.003700  1
  C  C184  1  0.000000  0.695500  1.042200  1
  C  C185  1  0.000000  0.566800  1.058400  1
  C  C186  1  0.000000  0.636000  1.111600  1
  C  C187  1  -0.000000  0.739100  1.037600  1
  C  C188  1  0.000000  0.678700  1.103800  1
  C  C189  1  0.000000  0.549400  1.124200  1
  C  C190  1  0.000000  0.762700  1.090600  1
  C  C191  1  -0.000000  0.702400  1.166000  1
  C  C192  1  0.000000  0.532200  1.175300  1
  C  C193  1  0.000000  0.744300  1.159000  1
  C  C194  1  0.215000  0.479000  1.262700  1
  C  C195  1  -0.215000  0.479000  1.262700  1
  C  C196  1  0.000000  0.555000  1.311900  1
  Si  Si197  1  0.000000  0.713420  0.416300  1.0
  Si  Si198  1  -0.000000  1.061500  0.502100  1
  Si  Si199  1  0.000000  1.286580  -0.083700  1.0
  Si  Si200  1  0.000000  0.938500  0.002100  1
  Si  Si201  1  -0.500000  0.213420  0.416300  1.0
  Si  Si202  1  -0.500000  0.561500  0.502100  1
  Si  Si203  1  0.500000  0.786580  -0.083700  1.0
  Si  Si204  1  0.500000  0.438500  0.002100  1
  Si  Si205  1  -0.500000  0.835100  0.243100  1.0
  Si  Si206  1  -0.500000  0.990100  0.755800  1
  Si  Si207  1  -0.500000  1.164900  0.743100  1.0
  Si  Si208  1  -0.500000  1.009900  1.255800  1
  Si  Si209  1  -0.000000  1.335100  0.243100  1.0
  Si  Si210  1  -0.000000  1.490100  0.755800  1
  Si  Si211  1  0.000000  0.664900  0.743100  1.0
  Si  Si212  1  0.000000  0.509900  1.255800  1
