# generated using pymatgen
data_SiH29C24
_symmetry_space_group_name_H-M   'P 1'
_cell_length_a   9.40780000
_cell_length_b   10.79170000
_cell_length_c   10.96220000
_cell_angle_alpha   67.76710000
_cell_angle_beta   82.78120000
_cell_angle_gamma   84.55380000
_symmetry_Int_Tables_number   1
_chemical_formula_structural   SiH29C24
_chemical_formula_sum   'Si2 H58 C48'
_cell_volume   1020.67975844
_cell_formula_units_Z   2
loop_
 _symmetry_equiv_pos_site_id
 _symmetry_equiv_pos_as_xyz
  1  'x, y, z'
loop_
 _atom_site_type_symbol
 _atom_site_label
 _atom_site_symmetry_multiplicity
 _atom_site_fract_x
 _atom_site_fract_y
 _atom_site_fract_z
 _atom_site_occupancy
  C  C1  1  0.540400  0.683320  0.754870  1
  C  C2  1  0.700930  0.912110  0.745630  1
  C  C3  1  0.656200  0.657250  1.004340  1
  C  C4  1  0.397070  0.852830  0.901660  1
  C  C5  1  0.525450  0.625120  0.683060  1
  C  C6  1  0.646600  0.996610  0.611600  1
  C  C7  1  0.742000  1.003200  0.812700  1
  C  C8  1  0.804600  0.602000  0.968400  1
  C  C9  1  0.659300  0.709200  1.116710  1
  C  C10  1  0.305100  0.938900  0.790800  1
  C  C11  1  0.291800  0.754600  1.002200  1
  C  C12  1  0.511170  0.560310  0.593040  1
  C  C13  1  0.153700  0.928500  0.851700  1
  C  C14  1  0.144700  0.814000  0.981200  1
  C  C15  1  0.382550  0.580580  0.531700  1
  C  C16  1  0.628100  0.478820  0.565010  1
  C  C17  1  0.263770  0.656210  0.562240  1
  C  C18  1  0.371900  0.521180  0.434990  1
  C  C19  1  0.617450  0.419420  0.468300  1
  C  C20  1  0.755160  0.454010  0.627590  1
  C  C21  1  0.138770  0.678680  0.500980  1
  C  C22  1  0.488830  0.439690  0.406960  1
  C  C23  1  0.244840  0.545990  0.372410  1
  C  C24  1  0.736230  0.343790  0.437760  1
  C  C25  1  0.870120  0.376290  0.598840  1
  C  C26  1  0.017070  0.755660  0.531660  1
  C  C27  1  0.129880  0.623710  0.401160  1
  C  C28  1  0.474550  0.374880  0.316940  1
  C  C29  1  0.861230  0.321320  0.499020  1
  C  C30  1  0.999380  0.350390  0.662790  1
  C  C31  1  -0.102300  0.777280  0.468630  1
  C  C32  1  0.000620  0.649610  0.337210  1
  C  C33  1  0.459600  0.316680  0.245130  1
  C  C34  1  0.982930  0.244340  0.468340  1
  C  C35  1  1.110900  0.276320  0.630470  1
  C  C36  1  -0.110900  0.723680  0.369530  1
  C  C37  1  1.102300  0.222720  0.531370  1
  C  C38  1  0.299070  0.087890  0.254370  1
  C  C39  1  0.343800  0.342750  -0.004340  1
  C  C40  1  0.602930  0.147170  0.098340  1
  C  C41  1  0.353400  0.003390  0.388400  1
  C  C42  1  0.258000  -0.003200  0.187300  1
  C  C43  1  0.195400  0.398000  0.031600  1
  C  C44  1  0.340700  0.290800  -0.116710  1
  C  C45  1  0.694900  0.061100  0.209200  1
  C  C46  1  0.708200  0.245400  -0.002200  1
  C  C47  1  0.846300  0.071500  0.148300  1
  C  C48  1  0.855300  0.186000  0.018800  1
  H  H49  1  0.790600  0.863700  0.727000  1
  H  H50  1  0.593900  0.580000  1.040500  1
  H  H51  1  0.419600  0.913200  0.944900  1
  H  H52  1  0.568700  1.057900  0.623500  1
  H  H53  1  0.612300  0.938200  0.573800  1
  H  H54  1  0.724100  1.047300  0.552400  1
  H  H55  1  0.811900  1.064900  0.754000  1
  H  H56  1  0.783000  0.949000  0.894400  1
  H  H57  1  0.657200  1.053600  0.832100  1
  H  H58  1  0.871200  0.673400  0.935900  1
  H  H59  1  0.798600  0.566400  0.900200  1
  H  H60  1  0.838000  0.531100  1.046400  1
  H  H61  1  0.693000  0.637200  1.193700  1
  H  H62  1  0.563400  0.740700  1.139500  1
  H  H63  1  0.723300  0.782400  1.087800  1
  H  H64  1  0.332300  1.032300  0.755600  1
  H  H65  1  0.317300  0.905400  0.718300  1
  H  H66  1  0.301800  0.668800  0.989800  1
  H  H67  1  0.312400  0.738400  1.092600  1
  H  H68  1  0.120400  1.011800  0.864800  1
  H  H69  1  0.092000  0.915000  0.792600  1
  H  H70  1  0.106400  0.845200  1.052600  1
  H  H71  1  0.081500  0.747500  0.979800  1
  H  H72  1  0.269300  0.693000  0.626700  1
  H  H73  1  0.762200  0.491500  0.691100  1
  H  H74  1  0.237800  0.508500  0.308900  1
  H  H75  1  0.730700  0.307000  0.373300  1
  H  H76  1  0.020500  0.791800  0.596900  1
  H  H77  1  1.006800  0.385400  0.728200  1
  H  H78  1  -0.180800  0.828300  0.490300  1
  H  H79  1  -0.006800  0.614600  0.271800  1
  H  H80  1  0.979500  0.208200  0.403100  1
  H  H81  1  1.194800  0.260100  0.673700  1
  H  H82  1  -0.194800  0.739900  0.326300  1
  H  H83  1  1.180800  0.171700  0.509700  1
  H  H84  1  0.209400  0.136300  0.273000  1
  H  H85  1  0.406100  0.420000  -0.040500  1
  H  H86  1  0.580400  0.086800  0.055100  1
  H  H87  1  0.431300  -0.057900  0.376500  1
  H  H88  1  0.387700  0.061800  0.426200  1
  H  H89  1  0.275900  -0.047300  0.447600  1
  H  H90  1  0.188100  -0.064900  0.246000  1
  H  H91  1  0.217000  0.051000  0.105600  1
  H  H92  1  0.342800  -0.053600  0.167900  1
  H  H93  1  0.128800  0.326600  0.064100  1
  H  H94  1  0.201400  0.433600  0.099800  1
  H  H95  1  0.162000  0.468900  -0.046400  1
  H  H96  1  0.307000  0.362800  -0.193700  1
  H  H97  1  0.436600  0.259300  -0.139500  1
  H  H98  1  0.276700  0.217600  -0.087800  1
  H  H99  1  0.667700  -0.032300  0.244400  1
  H  H100  1  0.682700  0.094600  0.281700  1
  H  H101  1  0.698200  0.331200  0.010200  1
  H  H102  1  0.687600  0.261600  -0.092600  1
  H  H103  1  0.879600  -0.011800  0.135200  1
  H  H104  1  0.908000  0.085000  0.207400  1
  H  H105  1  0.893600  0.154800  -0.052600  1
  H  H106  1  0.918500  0.252500  0.020200  1
  Si  Si107  1  0.573930  0.780460  0.854440  1.0
  Si  Si108  1  0.426070  0.219540  0.145560  1
