# generated using pymatgen
data_SiC23SI
_symmetry_space_group_name_H-M   'P 1'
_cell_length_a   17.05570000
_cell_length_b   19.01180000
_cell_length_c   15.32340000
_cell_angle_alpha   90.00000000
_cell_angle_beta   110.02800000
_cell_angle_gamma   90.00000000
_symmetry_Int_Tables_number   1
_chemical_formula_structural   SiC23SI
_chemical_formula_sum   'Si8 C184 S8 I8'
_cell_volume   4668.27502388
_cell_formula_units_Z   8
loop_
 _symmetry_equiv_pos_site_id
 _symmetry_equiv_pos_as_xyz
  1  'x, y, z'
loop_
 _atom_site_type_symbol
 _atom_site_label
 _atom_site_symmetry_multiplicity
 _atom_site_fract_x
 _atom_site_fract_y
 _atom_site_fract_z
 _atom_site_occupancy
  C  C1  1  0.769200  0.236400  0.408400  1
  C  C2  1  0.586300  0.215900  0.310100  1
  C  C3  1  0.667800  0.164800  0.515200  1
  C  C4  1  0.645600  0.324300  0.470000  1
  C  C5  1  0.836600  0.232900  0.401100  1
  C  C6  1  0.600800  0.163700  0.250500  1
  C  C7  1  0.754500  0.146200  0.584700  1
  C  C8  1  0.659000  0.386000  0.439000  1
  C  C9  1  0.918200  0.226200  0.392800  1
  C  C10  1  0.521000  0.147700  0.163300  1
  C  C11  1  0.641900  0.101200  0.278400  1
  C  C12  1  0.803500  0.206600  0.641700  1
  C  C13  1  0.744100  0.086200  0.650000  1
  C  C14  1  0.607000  0.454000  0.468000  1
  C  C15  1  0.667000  0.397000  0.359000  1
  C  C16  1  0.965000  0.285100  0.388700  1
  C  C17  1  0.948000  0.156600  0.388000  1
  C  C18  1  1.048700  0.276000  0.388200  1
  C  C19  1  0.932700  0.354700  0.385600  1
  C  C20  1  0.899900  0.097000  0.385700  1
  C  C21  1  1.031300  0.147600  0.383800  1
  C  C22  1  1.079600  0.208100  0.386800  1
  C  C23  1  1.095100  0.336200  0.383600  1
  C  C24  1  0.979400  0.412200  0.381400  1
  C  C25  1  0.928700  0.030000  0.379000  1
  C  C26  1  1.062000  0.078900  0.380200  1
  C  C27  1  1.163200  0.201400  0.386000  1
  C  C28  1  1.063600  0.402600  0.383200  1
  C  C29  1  0.868600  -0.042400  0.370600  1
  C  C30  1  1.011300  0.022100  0.373600  1
  C  C31  1  1.231000  0.195500  0.384500  1
  C  C32  1  1.112700  0.478100  0.377400  1
  C  C33  1  1.048700  0.521800  0.375300  1
  C  C34  1  0.946100  -0.091400  0.368100  1
  C  C35  1  1.333600  0.126500  0.285000  1
  C  C36  1  1.376300  0.275600  0.363000  1
  C  C37  1  1.412700  0.144200  0.494600  1
  C  C38  1  1.265800  0.161000  0.186000  1
  C  C39  1  1.321900  0.342800  0.349000  1
  C  C40  1  1.408900  0.088700  0.536400  1
  C  C41  1  1.269000  0.080000  0.134000  1
  C  C42  1  1.207000  0.131000  0.162000  1
  C  C43  1  1.328300  0.365800  0.450000  1
  C  C44  1  1.349000  0.402100  0.322000  1
  C  C45  1  1.329700  0.071000  0.549000  1
  C  C46  1  1.483400  0.067400  0.626700  1
  C  C47  1  1.230800  -0.263600  0.091600  1
  C  C48  1  1.413700  -0.284100  0.189900  1
  C  C49  1  1.332200  -0.335200  -0.015200  1
  C  C50  1  1.354400  -0.175700  0.030000  1
  C  C51  1  1.163400  -0.267100  0.098900  1
  C  C52  1  1.399200  -0.336300  0.249500  1
  C  C53  1  1.245500  -0.353800  -0.084700  1
  C  C54  1  1.341000  -0.114000  0.061000  1
  C  C55  1  1.081800  -0.273800  0.107200  1
  C  C56  1  1.479000  -0.352300  0.336700  1
  C  C57  1  1.358100  -0.398800  0.221600  1
  C  C58  1  1.196500  -0.293400  -0.141700  1
  C  C59  1  1.255900  -0.413800  -0.150000  1
  C  C60  1  1.393000  -0.046000  0.032000  1
  C  C61  1  1.333000  -0.103000  0.141000  1
  C  C62  1  1.035000  -0.214900  0.111300  1
  C  C63  1  1.052000  -0.343400  0.112000  1
  C  C64  1  0.951300  -0.224000  0.111800  1
  C  C65  1  1.067300  -0.145300  0.114400  1
  C  C66  1  1.100100  -0.403000  0.114300  1
  C  C67  1  0.968700  -0.352400  0.116200  1
  C  C68  1  0.920400  -0.291900  0.113200  1
  C  C69  1  0.904900  -0.163800  0.116400  1
  C  C70  1  1.020600  -0.087800  0.118600  1
  C  C71  1  1.071300  -0.470000  0.121000  1
  C  C72  1  0.938000  -0.421100  0.119800  1
  C  C73  1  0.836800  -0.298600  0.114000  1
  C  C74  1  0.936400  -0.097400  0.116800  1
  C  C75  1  1.131400  -0.542400  0.129400  1
  C  C76  1  0.988700  -0.477900  0.126400  1
  C  C77  1  0.769000  -0.304500  0.115500  1
  C  C78  1  0.887300  -0.021900  0.122600  1
  C  C79  1  0.951300  0.021800  0.124700  1
  C  C80  1  1.053900  -0.591400  0.131900  1
  C  C81  1  0.666400  -0.373500  0.215000  1
  C  C82  1  0.623700  -0.224400  0.137000  1
  C  C83  1  0.587300  -0.355800  0.005400  1
  C  C84  1  0.734200  -0.339000  0.314000  1
  C  C85  1  0.678100  -0.157200  0.151000  1
  C  C86  1  0.591100  -0.411300  -0.036400  1
  C  C87  1  0.731000  -0.420000  0.366000  1
  C  C88  1  0.793000  -0.369000  0.338000  1
  C  C89  1  0.671700  -0.134200  0.050000  1
  C  C90  1  0.651000  -0.097900  0.178000  1
  C  C91  1  0.670300  -0.429000  -0.049000  1
  C  C92  1  0.516600  -0.432600  -0.126700  1
  C  C93  1  1.230800  -0.236400  0.591600  1
  C  C94  1  1.413700  -0.215900  0.689900  1
  C  C95  1  1.332200  -0.164800  0.484800  1
  C  C96  1  1.354400  -0.324300  0.530000  1
  C  C97  1  1.163400  -0.232900  0.598900  1
  C  C98  1  1.399200  -0.163700  0.749500  1
  C  C99  1  1.245500  -0.146200  0.415300  1
  C  C100  1  1.341000  -0.386000  0.561000  1
  C  C101  1  1.081800  -0.226200  0.607200  1
  C  C102  1  1.479000  -0.147700  0.836700  1
  C  C103  1  1.358100  -0.101200  0.721600  1
  C  C104  1  1.196500  -0.206600  0.358300  1
  C  C105  1  1.255900  -0.086200  0.350000  1
  C  C106  1  1.393000  -0.454000  0.532000  1
  C  C107  1  1.333000  -0.397000  0.641000  1
  C  C108  1  1.035000  -0.285100  0.611300  1
  C  C109  1  1.052000  -0.156600  0.612000  1
  C  C110  1  0.951300  -0.276000  0.611800  1
  C  C111  1  1.067300  -0.354700  0.614400  1
  C  C112  1  1.100100  -0.097000  0.614300  1
  C  C113  1  0.968700  -0.147600  0.616200  1
  C  C114  1  0.920400  -0.208100  0.613200  1
  C  C115  1  0.904900  -0.336200  0.616400  1
  C  C116  1  1.020600  -0.412200  0.618600  1
  C  C117  1  1.071300  -0.030000  0.621000  1
  C  C118  1  0.938000  -0.078900  0.619800  1
  C  C119  1  0.836800  -0.201400  0.614000  1
  C  C120  1  0.936400  -0.402600  0.616800  1
  C  C121  1  1.131400  0.042400  0.629400  1
  C  C122  1  0.988700  -0.022100  0.626400  1
  C  C123  1  0.769000  -0.195500  0.615500  1
  C  C124  1  0.887300  -0.478100  0.622600  1
  C  C125  1  0.951300  -0.521800  0.624700  1
  C  C126  1  1.053900  0.091400  0.631900  1
  C  C127  1  0.666400  -0.126500  0.715000  1
  C  C128  1  0.623700  -0.275600  0.637000  1
  C  C129  1  0.587300  -0.144200  0.505400  1
  C  C130  1  0.734200  -0.161000  0.814000  1
  C  C131  1  0.678100  -0.342800  0.651000  1
  C  C132  1  0.591100  -0.088700  0.463600  1
  C  C133  1  0.731000  -0.080000  0.866000  1
  C  C134  1  0.793000  -0.131000  0.838000  1
  C  C135  1  0.671700  -0.365800  0.550000  1
  C  C136  1  0.651000  -0.402100  0.678000  1
  C  C137  1  0.670300  -0.071000  0.451000  1
  C  C138  1  0.516600  -0.067400  0.373300  1
  C  C139  1  0.769200  0.263600  -0.091600  1
  C  C140  1  0.586300  0.284100  -0.189900  1
  C  C141  1  0.667800  0.335200  0.015200  1
  C  C142  1  0.645600  0.175700  -0.030000  1
  C  C143  1  0.836600  0.267100  -0.098900  1
  C  C144  1  0.600800  0.336300  -0.249500  1
  C  C145  1  0.754500  0.353800  0.084700  1
  C  C146  1  0.659000  0.114000  -0.061000  1
  C  C147  1  0.918200  0.273800  -0.107200  1
  C  C148  1  0.521000  0.352300  -0.336700  1
  C  C149  1  0.641900  0.398800  -0.221600  1
  C  C150  1  0.803500  0.293400  0.141700  1
  C  C151  1  0.744100  0.413800  0.150000  1
  C  C152  1  0.607000  0.046000  -0.032000  1
  C  C153  1  0.667000  0.103000  -0.141000  1
  C  C154  1  0.965000  0.214900  -0.111300  1
  C  C155  1  0.948000  0.343400  -0.112000  1
  C  C156  1  1.048700  0.224000  -0.111800  1
  C  C157  1  0.932700  0.145300  -0.114400  1
  C  C158  1  0.899900  0.403000  -0.114300  1
  C  C159  1  1.031300  0.352400  -0.116200  1
  C  C160  1  1.079600  0.291900  -0.113200  1
  C  C161  1  1.095100  0.163800  -0.116400  1
  C  C162  1  0.979400  0.087800  -0.118600  1
  C  C163  1  0.928700  0.470000  -0.121000  1
  C  C164  1  1.062000  0.421100  -0.119800  1
  C  C165  1  1.163200  0.298600  -0.114000  1
  C  C166  1  1.063600  0.097400  -0.116800  1
  C  C167  1  0.868600  0.542400  -0.129400  1
  C  C168  1  1.011300  0.477900  -0.126400  1
  C  C169  1  1.231000  0.304500  -0.115500  1
  C  C170  1  1.112700  0.021900  -0.122600  1
  C  C171  1  1.048700  -0.021800  -0.124700  1
  C  C172  1  0.946100  0.591400  -0.131900  1
  C  C173  1  1.333600  0.373500  -0.215000  1
  C  C174  1  1.376300  0.224400  -0.137000  1
  C  C175  1  1.412700  0.355800  -0.005400  1
  C  C176  1  1.265800  0.339000  -0.314000  1
  C  C177  1  1.321900  0.157200  -0.151000  1
  C  C178  1  1.408900  0.411300  0.036400  1
  C  C179  1  1.269000  0.420000  -0.366000  1
  C  C180  1  1.207000  0.369000  -0.338000  1
  C  C181  1  1.328300  0.134200  -0.050000  1
  C  C182  1  1.349000  0.097900  -0.178000  1
  C  C183  1  1.329700  0.429000  0.049000  1
  C  C184  1  1.483400  0.432600  0.126700  1
  I  I185  1  1.069700  0.631950  0.369780  1
  I  I186  1  0.928340  -0.198860  0.360690  1
  I  I187  1  0.930300  0.131950  0.130220  1
  I  I188  1  1.071660  -0.698860  0.139310  1
  I  I189  1  0.930300  -0.631950  0.630220  1
  I  I190  1  1.071660  0.198860  0.639310  1
  I  I191  1  1.069700  -0.131950  -0.130220  1
  I  I192  1  0.928340  0.698860  -0.139310  1
  S  S193  1  0.947900  0.498800  0.372900  1
  S  S194  1  1.040900  -0.063000  0.364700  1
  S  S195  1  1.052100  -0.001200  0.127100  1
  S  S196  1  0.959100  -0.563000  0.135300  1
  S  S197  1  1.052100  -0.498800  0.627100  1
  S  S198  1  0.959100  0.063000  0.635300  1
  S  S199  1  0.947900  0.001200  -0.127100  1
  S  S200  1  1.040900  0.563000  -0.135300  1
  Si  Si201  1  0.667600  0.235900  0.426500  1.0
  Si  Si202  1  1.339200  0.187300  0.381200  1
  Si  Si203  1  1.332400  -0.264100  0.073500  1.0
  Si  Si204  1  0.660800  -0.312700  0.118800  1
  Si  Si205  1  1.332400  -0.235900  0.573500  1.0
  Si  Si206  1  0.660800  -0.187300  0.618800  1
  Si  Si207  1  0.667600  0.264100  -0.073500  1.0
  Si  Si208  1  1.339200  0.312700  -0.118800  1
