# generated using pymatgen
data_SiH27(C12S)2
_symmetry_space_group_name_H-M   'P 1'
_cell_length_a   7.98810000
_cell_length_b   11.59930000
_cell_length_c   13.03990000
_cell_angle_alpha   91.32900000
_cell_angle_beta   106.45900000
_cell_angle_gamma   106.81500000
_symmetry_Int_Tables_number   1
_chemical_formula_structural   SiH27(C12S)2
_chemical_formula_sum   'Si2 H54 C48 S4'
_cell_volume   1101.87667019
_cell_formula_units_Z   2
loop_
 _symmetry_equiv_pos_site_id
 _symmetry_equiv_pos_as_xyz
  1  'x, y, z'
loop_
 _atom_site_type_symbol
 _atom_site_label
 _atom_site_symmetry_multiplicity
 _atom_site_fract_x
 _atom_site_fract_y
 _atom_site_fract_z
 _atom_site_occupancy
  C  C1  1  0.034000  0.326800  0.769420  1
  C  C2  1  -0.176100  0.256000  0.928790  1
  C  C3  1  -0.004900  0.079400  0.837750  1
  C  C4  1  0.250900  0.309300  0.991690  1
  C  C5  1  0.031500  0.377800  0.689660  1
  C  C6  1  -0.336600  0.266600  0.836100  1
  C  C7  1  -0.242700  0.155200  0.995600  1
  C  C8  1  -0.184100  0.022700  0.747000  1
  C  C9  1  0.160100  0.071900  0.802300  1
  C  C10  1  0.287000  0.233800  1.085600  1
  C  C11  1  0.279100  0.440500  1.034500  1
  C  C12  1  0.017500  0.437760  0.595030  1
  C  C13  1  0.172700  0.510700  0.569690  1
  C  C14  1  -0.154100  0.428490  0.523410  1
  C  C15  1  0.154100  0.571510  0.476590  1
  C  C16  1  -0.172700  0.489300  0.430310  1
  C  C17  1  -0.332800  0.361800  0.526700  1
  C  C18  1  -0.017500  0.562240  0.404970  1
  C  C19  1  0.332800  0.638200  0.473300  1
  C  C20  1  0.474700  0.629600  0.555200  1
  C  C21  1  -0.474700  0.370400  0.444800  1
  C  C22  1  -0.031500  0.622200  0.310340  1
  C  C23  1  0.668600  0.685300  0.574900  1
  C  C24  1  -0.668600  0.314700  0.425100  1
  C  C25  1  -0.034000  0.673200  0.230580  1
  C  C26  1  0.813500  0.670500  0.651600  1
  C  C27  1  -0.813500  0.329500  0.348400  1
  C  C28  1  0.988400  0.742300  0.645500  1
  C  C29  1  0.969400  0.812700  0.559400  1
  C  C30  1  -0.988400  0.257700  0.354500  1
  C  C31  1  -0.969400  0.187300  0.440600  1
  C  C32  1  0.176100  0.744000  0.071210  1
  C  C33  1  0.004900  0.920600  0.162250  1
  C  C34  1  -0.250900  0.690700  0.008310  1
  C  C35  1  1.164800  0.749300  0.709600  1
  C  C36  1  1.121300  0.890600  0.536800  1
  C  C37  1  -1.164800  0.250700  0.290400  1
  C  C38  1  -1.121300  0.109400  0.463200  1
  C  C39  1  0.336600  0.733400  0.163900  1
  C  C40  1  0.242700  0.844800  0.004400  1
  C  C41  1  0.184100  0.977300  0.253000  1
  C  C42  1  -0.160100  0.928100  0.197700  1
  C  C43  1  -0.287000  0.766200  -0.085600  1
  C  C44  1  -0.279100  0.559500  -0.034500  1
  C  C45  1  1.315500  0.825800  0.688000  1
  C  C46  1  1.292600  0.896300  0.601900  1
  C  C47  1  -1.315500  0.174200  0.312000  1
  C  C48  1  -1.292600  0.103700  0.398100  1
  H  H49  1  -0.129263  0.333736  0.977451  1
  H  H50  1  -0.009099  0.030871  0.899897  1
  H  H51  1  0.347717  0.313263  0.956036  1
  H  H52  1  -0.391235  0.190646  0.787744  1
  H  H53  1  -0.292091  0.333282  0.796088  1
  H  H54  1  -0.429213  0.282827  0.865000  1
  H  H55  1  -0.338072  0.171377  1.021869  1
  H  H56  1  -0.139456  0.152984  1.056916  1
  H  H57  1  -0.293220  0.076956  0.950560  1
  H  H58  1  -0.189457  0.073464  0.687839  1
  H  H59  1  -0.288447  0.016954  0.774172  1
  H  H60  1  -0.189310  -0.058526  0.720891  1
  H  H61  1  0.141567  -0.012420  0.777086  1
  H  H62  1  0.272372  0.101077  0.863417  1
  H  H63  1  0.171556  0.122309  0.743853  1
  H  H64  1  0.411613  0.271316  1.134154  1
  H  H65  1  0.274489  0.151527  1.057680  1
  H  H66  1  0.198120  0.230134  1.124955  1
  H  H67  1  0.193736  0.440603  1.075663  1
  H  H68  1  0.255985  0.488121  0.973903  1
  H  H69  1  0.405485  0.476332  1.081275  1
  H  H70  1  -0.350730  0.314148  0.583219  1
  H  H71  1  0.350730  0.685852  0.416781  1
  H  H72  1  0.800063  0.616924  0.704800  1
  H  H73  1  -0.800063  0.383076  0.295200  1
  H  H74  1  0.129263  0.666264  0.022549  1
  H  H75  1  0.009099  0.969129  0.100103  1
  H  H76  1  -0.347717  0.686737  0.043964  1
  H  H77  1  1.180736  0.701642  0.767723  1
  H  H78  1  1.106448  0.937956  0.478340  1
  H  H79  1  -1.180736  0.298358  0.232277  1
  H  H80  1  -1.106448  0.062044  0.521660  1
  H  H81  1  0.391235  0.809354  0.212256  1
  H  H82  1  0.292091  0.666718  0.203912  1
  H  H83  1  0.429213  0.717173  0.135000  1
  H  H84  1  0.338072  0.828623  -0.021869  1
  H  H85  1  0.139456  0.847016  -0.056916  1
  H  H86  1  0.293220  0.923044  0.049440  1
  H  H87  1  0.189457  0.926536  0.312161  1
  H  H88  1  0.288447  0.983046  0.225828  1
  H  H89  1  0.189310  1.058526  0.279109  1
  H  H90  1  -0.141567  1.012420  0.222914  1
  H  H91  1  -0.272372  0.898923  0.136583  1
  H  H92  1  -0.171556  0.877691  0.256147  1
  H  H93  1  -0.411613  0.728684  -0.134154  1
  H  H94  1  -0.274489  0.848473  -0.057680  1
  H  H95  1  -0.198120  0.769866  -0.124955  1
  H  H96  1  -0.193736  0.559397  -0.075663  1
  H  H97  1  -0.255985  0.511879  0.026097  1
  H  H98  1  -0.405485  0.523668  -0.081275  1
  H  H99  1  1.435496  0.830853  0.731537  1
  H  H100  1  1.397835  0.949037  0.588461  1
  H  H101  1  -1.435496  0.169147  0.268463  1
  H  H102  1  -1.397835  0.050963  0.411539  1
  S  S103  1  0.396990  0.533900  0.646760  1
  S  S104  1  -0.396990  0.466100  0.353240  1
  S  S105  1  0.739460  0.789920  0.489040  1
  S  S106  1  -0.739460  0.210080  0.510960  1
  Si  Si107  1  0.024090  0.240540  0.885440  1.0
  Si  Si108  1  -0.024090  0.759460  0.114560  1
