# generated using pymatgen
data_SiH29C23
_symmetry_space_group_name_H-M   'P 1'
_cell_length_a   8.88400000
_cell_length_b   22.32400000
_cell_length_c   10.79700000
_cell_angle_alpha   90.00000000
_cell_angle_beta   110.14600000
_cell_angle_gamma   90.00000000
_symmetry_Int_Tables_number   1
_chemical_formula_structural   SiH29C23
_chemical_formula_sum   'Si4 H116 C92'
_cell_volume   2010.31953178
_cell_formula_units_Z   4
loop_
 _symmetry_equiv_pos_site_id
 _symmetry_equiv_pos_as_xyz
  1  'x, y, z'
loop_
 _atom_site_type_symbol
 _atom_site_label
 _atom_site_symmetry_multiplicity
 _atom_site_fract_x
 _atom_site_fract_y
 _atom_site_fract_z
 _atom_site_occupancy
  C  C1  1  0.547300  0.125190  0.283170  1
  C  C2  1  0.795500  0.206640  0.457550  1
  C  C3  1  0.442900  0.246950  0.342080  1
  C  C4  1  0.534000  0.146160  0.551940  1
  C  C5  1  0.531400  0.087000  0.200240  1
  C  C6  1  0.912700  0.154340  0.505500  1
  C  C7  1  0.823700  0.238440  0.341300  1
  C  C8  1  0.484200  0.301450  0.433300  1
  C  C9  1  0.265400  0.231540  0.304500  1
  C  C10  1  0.402400  0.097460  0.509570  1
  C  C11  1  0.515400  0.042860  0.101000  1
  C  C12  1  0.348600  0.074660  0.618700  1
  C  C13  1  0.628800  0.042160  0.034250  1
  C  C14  1  0.388700  0.000790  0.069150  1
  C  C15  1  0.223800  0.025070  0.574100  1
  C  C16  1  0.757400  0.082860  0.066540  1
  C  C17  1  0.611300  -0.000790  -0.069150  1
  C  C18  1  0.371200  -0.042160  -0.034250  1
  C  C19  1  0.278100  -0.000660  0.137040  1
  C  C20  1  0.865300  0.083960  -0.000210  1
  C  C21  1  0.484600  -0.042860  -0.101000  1
  C  C22  1  0.721900  0.000660  -0.137040  1
  C  C23  1  0.242600  -0.082860  -0.066540  1
  C  C24  1  0.154100  -0.041990  0.106200  1
  C  C25  1  0.995300  0.125180  0.032570  1
  C  C26  1  0.845900  0.041990  -0.106200  1
  C  C27  1  0.468600  -0.087000  -0.200240  1
  C  C28  1  0.134700  -0.083960  0.000210  1
  C  C29  1  0.041000  -0.044340  0.174960  1
  C  C30  1  1.099100  0.125470  -0.034300  1
  C  C31  1  0.959000  0.044340  -0.174960  1
  C  C32  1  0.452700  -0.125190  -0.283170  1
  C  C33  1  0.004700  -0.125180  -0.032570  1
  C  C34  1  -0.079800  -0.084600  0.139500  1
  C  C35  1  1.079800  0.084600  -0.139500  1
  C  C36  1  -0.099100  -0.125470  0.034300  1
  C  C37  1  0.204500  -0.206640  -0.457550  1
  C  C38  1  0.557100  -0.246950  -0.342080  1
  C  C39  1  0.466000  -0.146160  -0.551940  1
  C  C40  1  0.087300  -0.154340  -0.505500  1
  C  C41  1  0.176300  -0.238440  -0.341300  1
  C  C42  1  0.515800  -0.301450  -0.433300  1
  C  C43  1  0.734600  -0.231540  -0.304500  1
  C  C44  1  0.597600  -0.097460  -0.509570  1
  C  C45  1  0.651400  -0.074660  -0.618700  1
  C  C46  1  0.776200  -0.025070  -0.574100  1
  C  C47  1  0.452700  0.625190  -0.783170  1
  C  C48  1  0.204500  0.706640  -0.957550  1
  C  C49  1  0.557100  0.746950  -0.842080  1
  C  C50  1  0.466000  0.646160  -1.051940  1
  C  C51  1  0.468600  0.587000  -0.700240  1
  C  C52  1  0.087300  0.654340  -1.005500  1
  C  C53  1  0.176300  0.738440  -0.841300  1
  C  C54  1  0.515800  0.801450  -0.933300  1
  C  C55  1  0.734600  0.731540  -0.804500  1
  C  C56  1  0.597600  0.597460  -1.009570  1
  C  C57  1  0.484600  0.542860  -0.601000  1
  C  C58  1  0.651400  0.574660  -1.118700  1
  C  C59  1  0.371200  0.542160  -0.534250  1
  C  C60  1  0.611300  0.500790  -0.569150  1
  C  C61  1  0.776200  0.525070  -1.074100  1
  C  C62  1  0.242600  0.582860  -0.566540  1
  C  C63  1  0.388700  0.499210  -0.430850  1
  C  C64  1  0.628800  0.457840  -0.465750  1
  C  C65  1  0.721900  0.499340  -0.637040  1
  C  C66  1  0.134700  0.583960  -0.499790  1
  C  C67  1  0.515400  0.457140  -0.399000  1
  C  C68  1  0.278100  0.500660  -0.362960  1
  C  C69  1  0.757400  0.417140  -0.433460  1
  C  C70  1  0.845900  0.458010  -0.606200  1
  C  C71  1  0.004700  0.625180  -0.532570  1
  C  C72  1  0.154100  0.541990  -0.393800  1
  C  C73  1  0.531400  0.413000  -0.299760  1
  C  C74  1  0.865300  0.416040  -0.500210  1
  C  C75  1  0.959000  0.455660  -0.674960  1
  C  C76  1  -0.099100  0.625470  -0.465700  1
  C  C77  1  0.041000  0.544340  -0.325040  1
  C  C78  1  0.547300  0.374810  -0.216830  1
  C  C79  1  0.995300  0.374820  -0.467430  1
  C  C80  1  1.079800  0.415400  -0.639500  1
  C  C81  1  -0.079800  0.584600  -0.360500  1
  C  C82  1  1.099100  0.374530  -0.534300  1
  C  C83  1  0.795500  0.293360  -0.042450  1
  C  C84  1  0.442900  0.253050  -0.157920  1
  C  C85  1  0.534000  0.353840  0.051940  1
  C  C86  1  0.912700  0.345660  0.005500  1
  C  C87  1  0.823700  0.261560  -0.158700  1
  C  C88  1  0.484200  0.198550  -0.066700  1
  C  C89  1  0.265400  0.268460  -0.195500  1
  C  C90  1  0.402400  0.402540  0.009570  1
  C  C91  1  0.348600  0.425340  0.118700  1
  C  C92  1  0.223800  0.474930  0.074100  1
  H  H93  1  0.818300  0.236100  0.531500  1
  H  H94  1  0.460600  0.258900  0.258900  1
  H  H95  1  0.633400  0.128000  0.613200  1
  H  H96  1  0.499800  0.177700  0.601100  1
  H  H97  1  0.892100  0.124400  0.435100  1
  H  H98  1  0.898300  0.136000  0.583100  1
  H  H99  1  1.022900  0.169100  0.529000  1
  H  H100  1  0.937300  0.249100  0.365900  1
  H  H101  1  0.758200  0.274800  0.319000  1
  H  H102  1  0.793800  0.211600  0.264700  1
  H  H103  1  0.413200  0.334800  0.391300  1
  H  H104  1  0.595800  0.313100  0.450100  1
  H  H105  1  0.470000  0.291400  0.517000  1
  H  H106  1  0.240900  0.222800  0.384400  1
  H  H107  1  0.240900  0.196300  0.246700  1
  H  H108  1  0.200600  0.265500  0.258100  1
  H  H109  1  0.308300  0.114000  0.438700  1
  H  H110  1  0.443200  0.063200  0.472100  1
  H  H111  1  0.303000  0.108400  0.653900  1
  H  H112  1  0.442900  0.059400  0.691200  1
  H  H113  1  0.128500  0.040300  0.504300  1
  H  H114  1  0.194100  0.011700  0.649100  1
  H  H115  1  0.268500  -0.008700  0.540200  1
  H  H116  1  0.770600  0.110500  0.136400  1
  H  H117  1  0.289100  0.027400  0.205700  1
  H  H118  1  0.710900  -0.027400  -0.205700  1
  H  H119  1  0.229400  -0.110500  -0.136400  1
  H  H120  1  1.009500  0.152900  0.102400  1
  H  H121  1  0.051600  -0.017400  0.245600  1
  H  H122  1  1.185600  0.153200  -0.010700  1
  H  H123  1  0.948400  0.017400  -0.245600  1
  H  H124  1  -0.009500  -0.152900  -0.102400  1
  H  H125  1  -0.153300  -0.085600  0.185800  1
  H  H126  1  1.153300  0.085600  -0.185800  1
  H  H127  1  -0.185600  -0.153200  0.010700  1
  H  H128  1  0.181700  -0.236100  -0.531500  1
  H  H129  1  0.539400  -0.258900  -0.258900  1
  H  H130  1  0.366600  -0.128000  -0.613200  1
  H  H131  1  0.500200  -0.177700  -0.601100  1
  H  H132  1  0.107900  -0.124400  -0.435100  1
  H  H133  1  0.101700  -0.136000  -0.583100  1
  H  H134  1  -0.022900  -0.169100  -0.529000  1
  H  H135  1  0.062700  -0.249100  -0.365900  1
  H  H136  1  0.241800  -0.274800  -0.319000  1
  H  H137  1  0.206200  -0.211600  -0.264700  1
  H  H138  1  0.586800  -0.334800  -0.391300  1
  H  H139  1  0.404200  -0.313100  -0.450100  1
  H  H140  1  0.530000  -0.291400  -0.517000  1
  H  H141  1  0.759100  -0.222800  -0.384400  1
  H  H142  1  0.759100  -0.196300  -0.246700  1
  H  H143  1  0.799400  -0.265500  -0.258100  1
  H  H144  1  0.691700  -0.114000  -0.438700  1
  H  H145  1  0.556800  -0.063200  -0.472100  1
  H  H146  1  0.697000  -0.108400  -0.653900  1
  H  H147  1  0.557100  -0.059400  -0.691200  1
  H  H148  1  0.871500  -0.040300  -0.504300  1
  H  H149  1  0.805900  -0.011700  -0.649100  1
  H  H150  1  0.731500  0.008700  -0.540200  1
  H  H151  1  0.181700  0.736100  -1.031500  1
  H  H152  1  0.539400  0.758900  -0.758900  1
  H  H153  1  0.366600  0.628000  -1.113200  1
  H  H154  1  0.500200  0.677700  -1.101100  1
  H  H155  1  0.107900  0.624400  -0.935100  1
  H  H156  1  0.101700  0.636000  -1.083100  1
  H  H157  1  -0.022900  0.669100  -1.029000  1
  H  H158  1  0.062700  0.749100  -0.865900  1
  H  H159  1  0.241800  0.774800  -0.819000  1
  H  H160  1  0.206200  0.711600  -0.764700  1
  H  H161  1  0.586800  0.834800  -0.891300  1
  H  H162  1  0.404200  0.813100  -0.950100  1
  H  H163  1  0.530000  0.791400  -1.017000  1
  H  H164  1  0.759100  0.722800  -0.884400  1
  H  H165  1  0.759100  0.696300  -0.746700  1
  H  H166  1  0.799400  0.765500  -0.758100  1
  H  H167  1  0.691700  0.614000  -0.938700  1
  H  H168  1  0.556800  0.563200  -0.972100  1
  H  H169  1  0.697000  0.608400  -1.153900  1
  H  H170  1  0.557100  0.559400  -1.191200  1
  H  H171  1  0.871500  0.540300  -1.004300  1
  H  H172  1  0.805900  0.511700  -1.149100  1
  H  H173  1  0.731500  0.491300  -1.040200  1
  H  H174  1  0.229400  0.610500  -0.636400  1
  H  H175  1  0.710900  0.527400  -0.705700  1
  H  H176  1  0.289100  0.472600  -0.294300  1
  H  H177  1  0.770600  0.389500  -0.363600  1
  H  H178  1  -0.009500  0.652900  -0.602400  1
  H  H179  1  0.948400  0.482600  -0.745600  1
  H  H180  1  -0.185600  0.653200  -0.489300  1
  H  H181  1  0.051600  0.517400  -0.254400  1
  H  H182  1  1.009500  0.347100  -0.397600  1
  H  H183  1  1.153300  0.414400  -0.685800  1
  H  H184  1  -0.153300  0.585600  -0.314200  1
  H  H185  1  1.185600  0.346800  -0.510700  1
  H  H186  1  0.818300  0.263900  0.031500  1
  H  H187  1  0.460600  0.241100  -0.241100  1
  H  H188  1  0.633400  0.372000  0.113200  1
  H  H189  1  0.499800  0.322300  0.101100  1
  H  H190  1  0.892100  0.375600  -0.064900  1
  H  H191  1  0.898300  0.364000  0.083100  1
  H  H192  1  1.022900  0.330900  0.029000  1
  H  H193  1  0.937300  0.250900  -0.134100  1
  H  H194  1  0.758200  0.225200  -0.181000  1
  H  H195  1  0.793800  0.288400  -0.235300  1
  H  H196  1  0.413200  0.165200  -0.108700  1
  H  H197  1  0.595800  0.186900  -0.049900  1
  H  H198  1  0.470000  0.208600  0.017000  1
  H  H199  1  0.240900  0.277200  -0.115600  1
  H  H200  1  0.240900  0.303700  -0.253300  1
  H  H201  1  0.200600  0.234500  -0.241900  1
  H  H202  1  0.308300  0.386000  -0.061300  1
  H  H203  1  0.443200  0.436800  -0.027900  1
  H  H204  1  0.303000  0.391600  0.153900  1
  H  H205  1  0.442900  0.440600  0.191200  1
  H  H206  1  0.128500  0.459700  0.004300  1
  H  H207  1  0.194100  0.488300  0.149100  1
  H  H208  1  0.268500  0.508700  0.040200  1
  Si  Si209  1  0.580760  0.182140  0.413010  1.0
  Si  Si210  1  0.419240  -0.182140  -0.413010  1
  Si  Si211  1  0.419240  0.682140  -0.913010  1.0
  Si  Si212  1  0.580760  0.317860  -0.086990  1
