# generated using pymatgen
data_SiH18C16SN
_symmetry_space_group_name_H-M   'P 1'
_cell_length_a   6.55500000
_cell_length_b   7.12540000
_cell_length_c   16.88370000
_cell_angle_alpha   99.81900000
_cell_angle_beta   93.25500000
_cell_angle_gamma   103.90900000
_symmetry_Int_Tables_number   1
_chemical_formula_structural   SiH18C16SN
_chemical_formula_sum   'Si2 H36 C32 S2 N2'
_cell_volume   750.30032640
_cell_formula_units_Z   2
loop_
 _symmetry_equiv_pos_site_id
 _symmetry_equiv_pos_as_xyz
  1  'x, y, z'
loop_
 _atom_site_type_symbol
 _atom_site_label
 _atom_site_symmetry_multiplicity
 _atom_site_fract_x
 _atom_site_fract_y
 _atom_site_fract_z
 _atom_site_occupancy
  C  C1  1  0.304700  0.589900  0.722250  1
  C  C2  1  -0.088100  0.540100  0.809890  1
  C  C3  1  0.306900  0.424800  0.871400  1
  C  C4  1  0.306000  0.862300  0.879680  1
  C  C5  1  0.366400  0.569400  0.656620  1
  C  C6  1  -0.194200  0.345100  0.755300  1
  C  C7  1  0.225900  0.399300  0.952780  1
  C  C8  1  0.540000  0.947300  0.882200  1
  C  C9  1  0.433600  0.536400  0.577810  1
  C  C10  1  0.640600  0.630600  0.564390  1
  C  C11  1  0.291500  0.408800  0.514340  1
  C  C12  1  0.781000  0.766200  0.627020  1
  C  C13  1  0.708500  0.591200  0.485660  1
  C  C14  1  0.359400  0.369400  0.435610  1
  C  C15  1  0.082400  0.319500  0.527790  1
  C  C16  1  0.986600  0.852400  0.607600  1
  C  C17  1  0.566400  0.463600  0.422190  1
  C  C18  1  0.917600  0.680500  0.472210  1
  C  C19  1  0.219000  0.233800  0.372980  1
  C  C20  1  -0.054800  0.193000  0.470100  1
  C  C21  1  1.054800  0.807000  0.529900  1
  C  C22  1  0.633600  0.430600  0.343380  1
  C  C23  1  0.013400  0.147600  0.392400  1
  C  C24  1  1.344200  1.012500  0.588900  1
  C  C25  1  0.695300  0.410100  0.277750  1
  C  C26  1  -0.344200  -0.012500  0.411100  1
  C  C27  1  1.088100  0.459900  0.190110  1
  C  C28  1  0.693100  0.575200  0.128600  1
  C  C29  1  0.694000  0.137700  0.120320  1
  C  C30  1  1.194200  0.654900  0.244700  1
  C  C31  1  0.774100  0.600700  0.047220  1
  C  C32  1  0.460000  0.052700  0.117800  1
  H  H33  1  -0.138800  0.538100  0.863900  1
  H  H34  1  -0.134300  0.645600  0.788300  1
  H  H35  1  0.266500  0.295300  0.834400  1
  H  H36  1  0.463100  0.467700  0.879100  1
  H  H37  1  0.231900  0.947600  0.855300  1
  H  H38  1  0.268800  0.865700  0.935800  1
  H  H39  1  -0.159700  0.350400  0.699800  1
  H  H40  1  -0.347600  0.318900  0.756600  1
  H  H41  1  -0.143900  0.239700  0.774000  1
  H  H42  1  0.260000  0.527400  0.989400  1
  H  H43  1  0.293300  0.309400  0.976000  1
  H  H44  1  0.072400  0.344500  0.945200  1
  H  H45  1  0.615700  0.865900  0.907300  1
  H  H46  1  0.578600  1.081700  0.913800  1
  H  H47  1  0.578500  0.949500  0.827000  1
  H  H48  1  0.739400  0.798100  0.679600  1
  H  H49  1  0.037900  0.350800  0.579900  1
  H  H50  1  0.962100  0.649200  0.420100  1
  H  H51  1  0.260600  0.201900  0.320400  1
  H  H52  1  1.486500  1.088700  0.594500  1
  H  H53  1  -0.486500  -0.088700  0.405500  1
  H  H54  1  1.138800  0.461900  0.136100  1
  H  H55  1  1.134300  0.354400  0.211700  1
  H  H56  1  0.733500  0.704700  0.165600  1
  H  H57  1  0.536900  0.532300  0.120900  1
  H  H58  1  0.768100  0.052400  0.144700  1
  H  H59  1  0.731200  0.134300  0.064200  1
  H  H60  1  1.159700  0.649600  0.300200  1
  H  H61  1  1.347600  0.681100  0.243400  1
  H  H62  1  1.143900  0.760300  0.226000  1
  H  H63  1  0.740000  0.472600  0.010600  1
  H  H64  1  0.706700  0.690600  0.024000  1
  H  H65  1  0.927600  0.655500  0.054800  1
  H  H66  1  0.384300  0.134100  0.092700  1
  H  H67  1  0.421400  -0.081700  0.086200  1
  H  H68  1  0.421500  0.050500  0.173000  1
  N  N69  1  -0.261800  0.101200  0.478700  1
  N  N70  1  1.261800  0.898800  0.521300  1
  S  S71  1  1.191860  1.025100  0.669620  1
  S  S72  1  -0.191860  -0.025100  0.330380  1
  Si  Si73  1  0.206610  0.605290  0.822290  1.0
  Si  Si74  1  0.793390  0.394710  0.177710  1
