# generated using pymatgen
data_SiH33C28
_symmetry_space_group_name_H-M   'P 1'
_cell_length_a   14.11500000
_cell_length_b   16.55300000
_cell_length_c   20.27500000
_cell_angle_alpha   95.46900000
_cell_angle_beta   94.29000000
_cell_angle_gamma   106.44800000
_symmetry_Int_Tables_number   1
_chemical_formula_structural   SiH33C28
_chemical_formula_sum   'Si8 H264 C224'
_cell_volume   4496.84518814
_cell_formula_units_Z   8
loop_
 _symmetry_equiv_pos_site_id
 _symmetry_equiv_pos_as_xyz
  1  'x, y, z'
loop_
 _atom_site_type_symbol
 _atom_site_label
 _atom_site_symmetry_multiplicity
 _atom_site_fract_x
 _atom_site_fract_y
 _atom_site_fract_z
 _atom_site_occupancy
  C  C1  1  0.582800  0.876130  0.434900  1
  C  C2  1  0.641900  1.044020  0.385090  1
  C  C3  1  0.778300  0.925600  0.374660  1
  C  C4  1  0.754000  1.009600  0.512360  1
  C  C5  1  0.508100  0.818940  0.438200  1
  C  C6  1  0.575600  1.082800  0.428460  1
  C  C7  1  0.577100  1.007100  0.318760  1
  C  C8  1  0.730500  0.849900  0.321990  1
  C  C9  1  0.844400  0.990100  0.334900  1
  C  C10  1  0.850700  1.084400  0.515370  1
  C  C11  1  0.783400  0.942400  0.552020  1
  C  C12  1  0.419700  0.750160  0.439500  1
  C  C13  1  0.486900  1.084400  0.380200  1
  C  C14  1  0.513000  1.064400  0.310800  1
  C  C15  1  0.814000  0.845700  0.278300  1
  C  C16  1  0.875900  0.937000  0.278800  1
  C  C17  1  0.919000  1.071900  0.572400  1
  C  C18  1  0.894400  0.975700  0.571500  1
  C  C19  1  0.422300  0.683140  0.477380  1
  C  C20  1  0.331700  0.749470  0.400750  1
  C  C21  1  0.507400  0.684340  0.518700  1
  C  C22  1  0.335100  0.610150  0.472760  1
  C  C23  1  0.245000  0.676000  0.395800  1
  C  C24  1  0.325900  0.816650  0.365070  1
  C  C25  1  0.511200  0.617900  0.554820  1
  C  C26  1  0.339200  0.543410  0.510120  1
  C  C27  1  0.249000  0.606330  0.430470  1
  C  C28  1  0.158300  0.675400  0.355480  1
  C  C29  1  0.241100  0.816100  0.326480  1
  C  C30  1  0.598000  0.617000  0.594940  1
  C  C31  1  0.423300  0.545170  0.550460  1
  C  C32  1  0.167200  0.530200  0.421840  1
  C  C33  1  0.154600  0.742900  0.321460  1
  C  C34  1  0.235900  0.884700  0.289300  1
  C  C35  1  0.598900  0.549700  0.628250  1
  C  C36  1  0.428100  0.476600  0.587300  1
  C  C37  1  0.100600  0.464600  0.413850  1
  C  C38  1  0.067300  0.742800  0.279940  1
  C  C39  1  0.151800  0.881100  0.250500  1
  C  C40  1  0.512300  0.478600  0.624630  1
  C  C41  1  0.066000  0.809000  0.245780  1
  C  C42  1  0.014600  0.308200  0.315510  1
  C  C43  1  -0.118700  0.374800  0.410430  1
  C  C44  1  0.041500  0.298500  0.467960  1
  C  C45  1  0.121300  0.322300  0.296500  1
  C  C46  1  -0.028400  0.210600  0.304400  1
  C  C47  1  -0.148800  0.429300  0.359780  1
  C  C48  1  -0.204800  0.290300  0.401710  1
  C  C49  1  0.146000  0.286600  0.469740  1
  C  C50  1  0.039600  0.339800  0.539340  1
  C  C51  1  0.106800  0.256500  0.234300  1
  C  C52  1  0.027100  0.179100  0.250000  1
  C  C53  1  -0.230600  0.367800  0.311200  1
  C  C54  1  -0.287100  0.304700  0.355490  1
  C  C55  1  0.167800  0.266600  0.540480  1
  C  C56  1  0.119600  0.320000  0.583860  1
  C  C57  1  0.417200  0.123870  0.565100  1
  C  C58  1  0.358100  -0.044020  0.614910  1
  C  C59  1  0.221700  0.074400  0.625340  1
  C  C60  1  0.246000  -0.009600  0.487640  1
  C  C61  1  0.491900  0.181060  0.561800  1
  C  C62  1  0.424400  -0.082800  0.571540  1
  C  C63  1  0.422900  -0.007100  0.681240  1
  C  C64  1  0.269500  0.150100  0.678010  1
  C  C65  1  0.155600  0.009900  0.665100  1
  C  C66  1  0.149300  -0.084400  0.484630  1
  C  C67  1  0.216600  0.057600  0.447980  1
  C  C68  1  0.580300  0.249840  0.560500  1
  C  C69  1  0.513100  -0.084400  0.619800  1
  C  C70  1  0.487000  -0.064400  0.689200  1
  C  C71  1  0.186000  0.154300  0.721700  1
  C  C72  1  0.124100  0.063000  0.721200  1
  C  C73  1  0.081000  -0.071900  0.427600  1
  C  C74  1  0.105600  0.024300  0.428500  1
  C  C75  1  0.577700  0.316860  0.522620  1
  C  C76  1  0.668300  0.250530  0.599250  1
  C  C77  1  0.492600  0.315660  0.481300  1
  C  C78  1  0.664900  0.389850  0.527240  1
  C  C79  1  0.755000  0.324000  0.604200  1
  C  C80  1  0.674100  0.183350  0.634930  1
  C  C81  1  0.488800  0.382100  0.445180  1
  C  C82  1  0.660800  0.456590  0.489880  1
  C  C83  1  0.751000  0.393670  0.569530  1
  C  C84  1  0.841700  0.324600  0.644520  1
  C  C85  1  0.758900  0.183900  0.673520  1
  C  C86  1  0.402000  0.383000  0.405060  1
  C  C87  1  0.576700  0.454830  0.449540  1
  C  C88  1  0.832800  0.469800  0.578160  1
  C  C89  1  0.845400  0.257100  0.678540  1
  C  C90  1  0.764100  0.115300  0.710700  1
  C  C91  1  0.401100  0.450300  0.371750  1
  C  C92  1  0.571900  0.523400  0.412700  1
  C  C93  1  0.899400  0.535400  0.586150  1
  C  C94  1  0.932700  0.257200  0.720060  1
  C  C95  1  0.848200  0.118900  0.749500  1
  C  C96  1  0.487700  0.521400  0.375370  1
  C  C97  1  0.934000  0.191000  0.754220  1
  C  C98  1  0.985400  0.691800  0.684490  1
  C  C99  1  1.118700  0.625200  0.589570  1
  C  C100  1  0.958500  0.701500  0.532040  1
  C  C101  1  0.878700  0.677700  0.703500  1
  C  C102  1  1.028400  0.789400  0.695600  1
  C  C103  1  1.148800  0.570700  0.640220  1
  C  C104  1  1.204800  0.709700  0.598290  1
  C  C105  1  0.854000  0.713400  0.530260  1
  C  C106  1  0.960400  0.660200  0.460660  1
  C  C107  1  0.893200  0.743500  0.765700  1
  C  C108  1  0.972900  0.820900  0.750000  1
  C  C109  1  1.230600  0.632200  0.688800  1
  C  C110  1  1.287100  0.695300  0.644510  1
  C  C111  1  0.832200  0.733400  0.459520  1
  C  C112  1  0.880400  0.680000  0.416140  1
  C  C113  1  -0.068400  0.629180  0.075080  1
  C  C114  1  -0.258100  0.578000  0.138680  1
  C  C115  1  -0.238900  0.498700  -0.003930  1
  C  C116  1  -0.126200  0.456720  0.118520  1
  C  C117  1  0.003300  0.688200  0.070120  1
  C  C118  1  -0.215600  0.602600  0.214300  1
  C  C119  1  -0.357200  0.518300  0.146300  1
  C  C120  1  -0.284900  0.561000  -0.036500  1
  C  C121  1  -0.324400  0.414500  -0.011890  1
  C  C122  1  -0.080000  0.409700  0.066200  1
  C  C123  1  -0.039900  0.489900  0.177800  1
  C  C124  1  0.089300  0.758370  0.066140  1
  C  C125  1  -0.306600  0.600800  0.251700  1
  C  C126  1  -0.393700  0.561700  0.205600  1
  C  C127  1  -0.360300  0.508400  -0.089000  1
  C  C128  1  -0.405900  0.425200  -0.063200  1
  C  C129  1  0.001100  0.383100  0.106100  1
  C  C130  1  0.047400  0.460300  0.158100  1
  C  C131  1  0.179200  0.763600  0.104350  1
  C  C132  1  0.081700  0.821580  0.025790  1
  C  C133  1  0.188900  0.699700  0.142630  1
  C  C134  1  0.263400  0.837900  0.105700  1
  C  C135  1  0.165900  0.895960  0.027240  1
  C  C136  1  -0.006300  0.816350  -0.014550  1
  C  C137  1  0.277200  0.705100  0.180680  1
  C  C138  1  0.351700  0.842700  0.144980  1
  C  C139  1  0.254300  0.903430  0.068470  1
  C  C140  1  0.157100  0.959310  -0.011820  1
  C  C141  1  -0.013700  0.879780  -0.053220  1
  C  C142  1  0.286200  0.639500  0.220220  1
  C  C143  1  0.360900  0.778300  0.181560  1
  C  C144  1  0.334100  0.980250  0.073890  1
  C  C145  1  0.071000  0.953500  -0.051610  1
  C  C146  1  -0.103200  0.876000  -0.093170  1
  C  C147  1  0.374100  0.646800  0.256360  1
  C  C148  1  0.451400  0.781700  0.220750  1
  C  C149  1  0.398900  1.047300  0.079040  1
  C  C150  1  0.061300  1.019010  -0.090260  1
  C  C151  1  -0.108900  0.940600  -0.128490  1
  C  C152  1  0.457100  0.718500  0.256690  1
  C  C153  1  -0.025600  1.013000  -0.127090  1
  C  C154  1  0.454800  1.211500  0.022560  1
  C  C155  1  0.485600  1.204400  0.175250  1
  C  C156  1  0.616000  1.135900  0.082180  1
  C  C157  1  0.456300  1.169100  -0.048900  1
  C  C158  1  0.349200  1.221500  0.022580  1
  C  C159  1  0.382300  1.184400  0.201190  1
  C  C160  1  0.522600  1.302700  0.185900  1
  C  C161  1  0.641200  1.076700  0.131810  1
  C  C162  1  0.703900  1.218600  0.095800  1
  C  C163  1  0.360600  1.170600  -0.089370  1
  C  C164  1  0.322300  1.234100  -0.048870  1
  C  C165  1  0.398100  1.249100  0.263000  1
  C  C166  1  0.469400  1.329900  0.244100  1
  C  C167  1  0.727900  1.132600  0.180440  1
  C  C168  1  0.784500  1.198600  0.139710  1
  C  C169  1  1.068400  1.370820  0.924920  1
  C  C170  1  1.258100  1.422000  0.861320  1
  C  C171  1  1.238900  1.501300  1.003930  1
  C  C172  1  1.126200  1.543280  0.881480  1
  C  C173  1  0.996700  1.311800  0.929880  1
  C  C174  1  1.215600  1.397400  0.785700  1
  C  C175  1  1.357200  1.481700  0.853700  1
  C  C176  1  1.284900  1.439000  1.036500  1
  C  C177  1  1.324400  1.585500  1.011890  1
  C  C178  1  1.080000  1.590300  0.933800  1
  C  C179  1  1.039900  1.510100  0.822200  1
  C  C180  1  0.910700  1.241630  0.933860  1
  C  C181  1  1.306600  1.399200  0.748300  1
  C  C182  1  1.393700  1.438300  0.794400  1
  C  C183  1  1.360300  1.491600  1.089000  1
  C  C184  1  1.405900  1.574800  1.063200  1
  C  C185  1  0.998900  1.616900  0.893900  1
  C  C186  1  0.952600  1.539700  0.841900  1
  C  C187  1  0.820800  1.236400  0.895650  1
  C  C188  1  0.918300  1.178420  0.974210  1
  C  C189  1  0.811100  1.300300  0.857370  1
  C  C190  1  0.736600  1.162100  0.894300  1
  C  C191  1  0.834100  1.104040  0.972760  1
  C  C192  1  1.006300  1.183650  1.014550  1
  C  C193  1  0.722800  1.294900  0.819320  1
  C  C194  1  0.648300  1.157300  0.855020  1
  C  C195  1  0.745700  1.096570  0.931530  1
  C  C196  1  0.842900  1.040690  1.011820  1
  C  C197  1  1.013700  1.120220  1.053220  1
  C  C198  1  0.713800  1.360500  0.779780  1
  C  C199  1  0.639100  1.221700  0.818440  1
  C  C200  1  0.665900  1.019750  0.926110  1
  C  C201  1  0.929000  1.046500  1.051610  1
  C  C202  1  1.103200  1.124000  1.093170  1
  C  C203  1  0.625900  1.353200  0.743640  1
  C  C204  1  0.548600  1.218300  0.779250  1
  C  C205  1  0.601100  0.952700  0.920960  1
  C  C206  1  0.938700  0.980990  1.090260  1
  C  C207  1  1.108900  1.059400  1.128490  1
  C  C208  1  0.542900  1.281500  0.743310  1
  C  C209  1  1.025600  0.987000  1.127090  1
  C  C210  1  0.545200  0.788500  0.977440  1
  C  C211  1  0.514400  0.795600  0.824750  1
  C  C212  1  0.384000  0.864100  0.917820  1
  C  C213  1  0.543700  0.830900  1.048900  1
  C  C214  1  0.650800  0.778500  0.977420  1
  C  C215  1  0.617700  0.815600  0.798810  1
  C  C216  1  0.477400  0.697300  0.814100  1
  C  C217  1  0.358800  0.923300  0.868190  1
  C  C218  1  0.296100  0.781400  0.904200  1
  C  C219  1  0.639400  0.829400  1.089370  1
  C  C220  1  0.677700  0.765900  1.048870  1
  C  C221  1  0.601900  0.750900  0.737000  1
  C  C222  1  0.530600  0.670100  0.755900  1
  C  C223  1  0.272100  0.867400  0.819560  1
  C  C224  1  0.215500  0.801400  0.860290  1
  H  H225  1  0.699500  1.091400  0.376100  1
  H  H226  1  0.824000  0.907400  0.406200  1
  H  H227  1  0.706000  1.031100  0.537500  1
  H  H228  1  0.552700  1.047300  0.464200  1
  H  H229  1  0.612800  1.140800  0.449200  1
  H  H230  1  0.618600  1.007700  0.281500  1
  H  H231  1  0.536100  0.948100  0.320600  1
  H  H232  1  0.673400  0.858800  0.295300  1
  H  H233  1  0.707400  0.797100  0.342900  1
  H  H234  1  0.806900  1.026400  0.316100  1
  H  H235  1  0.903400  1.026900  0.363900  1
  H  H236  1  0.881100  1.082600  0.473000  1
  H  H237  1  0.836800  1.139500  0.523900  1
  H  H238  1  0.747600  0.935000  0.592200  1
  H  H239  1  0.766400  0.887000  0.523900  1
  H  H240  1  0.425700  1.041600  0.388900  1
  H  H241  1  0.476000  1.141100  0.385600  1
  H  H242  1  0.452400  1.035600  0.280100  1
  H  H243  1  0.549600  1.116900  0.293200  1
  H  H244  1  0.854700  0.811700  0.297000  1
  H  H245  1  0.786100  0.819900  0.232400  1
  H  H246  1  0.864000  0.957000  0.235400  1
  H  H247  1  0.947400  0.942000  0.287200  1
  H  H248  1  0.906000  1.098500  0.615400  1
  H  H249  1  0.989500  1.097000  0.565600  1
  H  H250  1  0.930800  0.951800  0.538600  1
  H  H251  1  0.912200  0.960800  0.616000  1
  H  H252  1  0.564400  0.732400  0.522000  1
  H  H253  1  0.382900  0.864600  0.367600  1
  H  H254  1  0.282100  0.495600  0.507500  1
  H  H255  1  0.101400  0.627300  0.351800  1
  H  H256  1  0.656100  0.664000  0.598500  1
  H  H257  1  0.292200  0.933200  0.291900  1
  H  H258  1  0.657800  0.550000  0.654300  1
  H  H259  1  0.371200  0.428800  0.585500  1
  H  H260  1  0.009500  0.695500  0.276400  1
  H  H261  1  0.150000  0.927100  0.226200  1
  H  H262  1  0.514000  0.432300  0.648600  1
  H  H263  1  0.007600  0.807500  0.218500  1
  H  H264  1  -0.022400  0.332300  0.282400  1
  H  H265  1  -0.116700  0.404000  0.456200  1
  H  H266  1  -0.007900  0.240800  0.461900  1
  H  H267  1  0.165100  0.311400  0.332800  1
  H  H268  1  0.149700  0.380800  0.285600  1
  H  H269  1  -0.018000  0.186200  0.346100  1
  H  H270  1  -0.100600  0.194000  0.289900  1
  H  H271  1  -0.173500  0.473700  0.382400  1
  H  H272  1  -0.091500  0.456900  0.336300  1
  H  H273  1  -0.182400  0.242800  0.381800  1
  H  H274  1  -0.228400  0.276800  0.445300  1
  H  H275  1  0.147000  0.239300  0.436300  1
  H  H276  1  0.195500  0.339100  0.460800  1
  H  H277  1  0.053100  0.402000  0.540100  1
  H  H278  1  -0.026300  0.316500  0.555000  1
  H  H279  1  0.084600  0.278100  0.193900  1
  H  H280  1  0.169300  0.242500  0.227500  1
  H  H281  1  0.057800  0.136700  0.265900  1
  H  H282  1  -0.019300  0.152400  0.209600  1
  H  H283  1  -0.202400  0.338800  0.276100  1
  H  H284  1  -0.274400  0.397400  0.290000  1
  H  H285  1  -0.331700  0.329000  0.381100  1
  H  H286  1  -0.326800  0.251100  0.328600  1
  H  H287  1  0.138500  0.205400  0.543900  1
  H  H288  1  0.240200  0.282300  0.553600  1
  H  H289  1  0.169700  0.373200  0.604200  1
  H  H290  1  0.089800  0.288500  0.620000  1
  H  H291  1  0.300500  -0.091400  0.623900  1
  H  H292  1  0.176000  0.092600  0.593800  1
  H  H293  1  0.294000  -0.031100  0.462500  1
  H  H294  1  0.447300  -0.047300  0.535800  1
  H  H295  1  0.387200  -0.140800  0.550800  1
  H  H296  1  0.381400  -0.007700  0.718500  1
  H  H297  1  0.463900  0.051900  0.679400  1
  H  H298  1  0.326600  0.141200  0.704700  1
  H  H299  1  0.292600  0.202900  0.657100  1
  H  H300  1  0.193100  -0.026400  0.683900  1
  H  H301  1  0.096600  -0.026900  0.636100  1
  H  H302  1  0.118900  -0.082600  0.527000  1
  H  H303  1  0.163200  -0.139500  0.476100  1
  H  H304  1  0.252400  0.065000  0.407800  1
  H  H305  1  0.233600  0.113000  0.476100  1
  H  H306  1  0.574300  -0.041600  0.611100  1
  H  H307  1  0.524000  -0.141100  0.614400  1
  H  H308  1  0.547600  -0.035600  0.719900  1
  H  H309  1  0.450400  -0.116900  0.706800  1
  H  H310  1  0.145300  0.188300  0.703000  1
  H  H311  1  0.213900  0.180100  0.767600  1
  H  H312  1  0.136000  0.043000  0.764600  1
  H  H313  1  0.052600  0.058000  0.712800  1
  H  H314  1  0.094000  -0.098500  0.384600  1
  H  H315  1  0.010500  -0.097000  0.434400  1
  H  H316  1  0.069200  0.048200  0.461400  1
  H  H317  1  0.087800  0.039200  0.384000  1
  H  H318  1  0.435600  0.267600  0.478000  1
  H  H319  1  0.617100  0.135400  0.632400  1
  H  H320  1  0.717900  0.504400  0.492500  1
  H  H321  1  0.898600  0.372700  0.648200  1
  H  H322  1  0.343900  0.336000  0.401500  1
  H  H323  1  0.707800  0.066800  0.708100  1
  H  H324  1  0.342200  0.450000  0.345700  1
  H  H325  1  0.628800  0.571200  0.414500  1
  H  H326  1  0.990500  0.304500  0.723600  1
  H  H327  1  0.850000  0.072900  0.773800  1
  H  H328  1  0.486000  0.567700  0.351400  1
  H  H329  1  0.992400  0.192500  0.781500  1
  H  H330  1  1.022400  0.667700  0.717600  1
  H  H331  1  1.116700  0.596000  0.543800  1
  H  H332  1  1.007900  0.759200  0.538100  1
  H  H333  1  0.834900  0.688600  0.667200  1
  H  H334  1  0.850300  0.619200  0.714400  1
  H  H335  1  1.018000  0.813800  0.653900  1
  H  H336  1  1.100600  0.806000  0.710100  1
  H  H337  1  1.173500  0.526300  0.617600  1
  H  H338  1  1.091500  0.543100  0.663700  1
  H  H339  1  1.182400  0.757200  0.618200  1
  H  H340  1  1.228400  0.723200  0.554700  1
  H  H341  1  0.853000  0.760700  0.563700  1
  H  H342  1  0.804500  0.660900  0.539200  1
  H  H343  1  0.946900  0.598000  0.459900  1
  H  H344  1  1.026300  0.683500  0.445000  1
  H  H345  1  0.915400  0.721900  0.806100  1
  H  H346  1  0.830700  0.757500  0.772500  1
  H  H347  1  0.942200  0.863300  0.734100  1
  H  H348  1  1.019300  0.847600  0.790400  1
  H  H349  1  1.202400  0.661200  0.723900  1
  H  H350  1  1.274400  0.602600  0.710000  1
  H  H351  1  1.331700  0.671000  0.618900  1
  H  H352  1  1.326800  0.748900  0.671400  1
  H  H353  1  0.861500  0.794600  0.456100  1
  H  H354  1  0.759800  0.717700  0.446400  1
  H  H355  1  0.830300  0.626800  0.395800  1
  H  H356  1  0.910200  0.711500  0.380000  1
  H  H357  1  -0.269500  0.629600  0.121600  1
  H  H358  1  -0.187100  0.488900  -0.032100  1
  H  H359  1  -0.182500  0.414000  0.134500  1
  H  H360  1  -0.182600  0.561200  0.229300  1
  H  H361  1  -0.167100  0.659900  0.221500  1
  H  H362  1  -0.350800  0.462400  0.155700  1
  H  H363  1  -0.403500  0.510300  0.105400  1
  H  H364  1  -0.315600  0.590700  -0.003500  1
  H  H365  1  -0.233700  0.603700  -0.055800  1
  H  H366  1  -0.351000  0.403900  0.031300  1
  H  H367  1  -0.300500  0.366300  -0.028200  1
  H  H368  1  -0.130900  0.359200  0.042200  1
  H  H369  1  -0.050800  0.447600  0.033400  1
  H  H370  1  -0.020200  0.552600  0.186000  1
  H  H371  1  -0.062600  0.466900  0.219100  1
  H  H372  1  -0.306700  0.567800  0.290000  1
  H  H373  1  -0.305300  0.659200  0.268800  1
  H  H374  1  -0.424200  0.604900  0.191000  1
  H  H375  1  -0.443400  0.519500  0.226300  1
  H  H376  1  -0.329500  0.498900  -0.130200  1
  H  H377  1  -0.411800  0.536700  -0.099200  1
  H  H378  1  -0.424200  0.377900  -0.100000  1
  H  H379  1  -0.466200  0.426600  -0.041700  1
  H  H380  1  -0.028000  0.331700  0.127500  1
  H  H381  1  0.050700  0.372200  0.077200  1
  H  H382  1  0.081500  0.444400  0.197100  1
  H  H383  1  0.095800  0.505300  0.138900  1
  H  H384  1  0.133400  0.651100  0.142600  1
  H  H385  1  -0.062300  0.768000  -0.015300  1
  H  H386  1  0.407000  0.891800  0.146500  1
  H  H387  1  0.212500  1.008200  -0.011000  1
  H  H388  1  0.230900  0.591100  0.221100  1
  H  H389  1  -0.159400  0.827600  -0.095000  1
  H  H390  1  0.379600  0.602800  0.281900  1
  H  H391  1  0.508200  0.829300  0.221300  1
  H  H392  1  0.116500  1.067700  -0.090300  1
  H  H393  1  -0.169300  0.937100  -0.154300  1
  H  H394  1  0.517500  0.722200  0.282500  1
  H  H395  1  -0.030500  1.057600  -0.152100  1
  H  H396  1  0.503200  1.269600  0.028000  1
  H  H397  1  0.529100  1.184100  0.206900  1
  H  H398  1  0.616300  1.109300  0.035800  1
  H  H399  1  0.515300  1.201000  -0.069000  1
  H  H400  1  0.458500  1.110000  -0.047800  1
  H  H401  1  0.302100  1.170100  0.035300  1
  H  H402  1  0.349100  1.271200  0.053800  1
  H  H403  1  0.331800  1.191700  0.167500  1
  H  H404  1  0.360900  1.125700  0.212900  1
  H  H405  1  0.595600  1.322800  0.197300  1
  H  H406  1  0.505500  1.326200  0.145100  1
  H  H407  1  0.583200  1.052300  0.155800  1
  H  H408  1  0.660300  1.029800  0.107800  1
  H  H409  1  0.728700  1.236300  0.053400  1
  H  H410  1  0.682600  1.265000  0.118800  1
  H  H411  1  0.374700  1.188500  -0.133700  1
  H  H412  1  0.311300  1.113700  -0.095600  1
  H  H413  1  0.249600  1.221900  -0.058900  1
  H  H414  1  0.355300  1.292800  -0.057600  1
  H  H415  1  0.427700  1.229700  0.302000  1
  H  H416  1  0.334500  1.258800  0.273500  1
  H  H417  1  0.518300  1.359300  0.282600  1
  H  H418  1  0.432200  1.369100  0.230300  1
  H  H419  1  0.703600  1.159700  0.218700  1
  H  H420  1  0.770300  1.099000  0.197400  1
  H  H421  1  0.828500  1.175700  0.112300  1
  H  H422  1  0.825300  1.250000  0.168900  1
  H  H423  1  1.269500  1.370400  0.878400  1
  H  H424  1  1.187100  1.511100  1.032100  1
  H  H425  1  1.182500  1.586000  0.865500  1
  H  H426  1  1.182600  1.438800  0.770700  1
  H  H427  1  1.167100  1.340100  0.778500  1
  H  H428  1  1.350800  1.537600  0.844300  1
  H  H429  1  1.403500  1.489700  0.894600  1
  H  H430  1  1.315600  1.409300  1.003500  1
  H  H431  1  1.233700  1.396300  1.055800  1
  H  H432  1  1.351000  1.596100  0.968700  1
  H  H433  1  1.300500  1.633700  1.028200  1
  H  H434  1  1.130900  1.640800  0.957800  1
  H  H435  1  1.050800  1.552400  0.966600  1
  H  H436  1  1.020200  1.447400  0.814000  1
  H  H437  1  1.062600  1.533100  0.780900  1
  H  H438  1  1.306700  1.432200  0.710000  1
  H  H439  1  1.305300  1.340800  0.731200  1
  H  H440  1  1.424200  1.395100  0.809000  1
  H  H441  1  1.443400  1.480500  0.773700  1
  H  H442  1  1.329500  1.501100  1.130200  1
  H  H443  1  1.411800  1.463300  1.099200  1
  H  H444  1  1.424200  1.622100  1.100000  1
  H  H445  1  1.466200  1.573400  1.041700  1
  H  H446  1  1.028000  1.668300  0.872500  1
  H  H447  1  0.949300  1.627800  0.922800  1
  H  H448  1  0.918500  1.555600  0.802900  1
  H  H449  1  0.904200  1.494700  0.861100  1
  H  H450  1  0.866600  1.348900  0.857400  1
  H  H451  1  1.062300  1.232000  1.015300  1
  H  H452  1  0.593000  1.108200  0.853500  1
  H  H453  1  0.787500  0.991800  1.011000  1
  H  H454  1  0.769100  1.408900  0.778900  1
  H  H455  1  1.159400  1.172400  1.095000  1
  H  H456  1  0.620400  1.397200  0.718100  1
  H  H457  1  0.491800  1.170700  0.778700  1
  H  H458  1  0.883500  0.932300  1.090300  1
  H  H459  1  1.169300  1.062900  1.154300  1
  H  H460  1  0.482500  1.277800  0.717500  1
  H  H461  1  1.030500  0.942400  1.152100  1
  H  H462  1  0.496800  0.730400  0.972000  1
  H  H463  1  0.470900  0.815900  0.793100  1
  H  H464  1  0.383700  0.890700  0.964200  1
  H  H465  1  0.484700  0.799000  1.069000  1
  H  H466  1  0.541500  0.890000  1.047800  1
  H  H467  1  0.697900  0.829900  0.964700  1
  H  H468  1  0.650900  0.728800  0.946200  1
  H  H469  1  0.668200  0.808300  0.832500  1
  H  H470  1  0.639100  0.874300  0.787100  1
  H  H471  1  0.404400  0.677200  0.802700  1
  H  H472  1  0.494500  0.673800  0.854900  1
  H  H473  1  0.416800  0.947700  0.844200  1
  H  H474  1  0.339700  0.970200  0.892200  1
  H  H475  1  0.271300  0.763700  0.946600  1
  H  H476  1  0.317400  0.735000  0.881200  1
  H  H477  1  0.625300  0.811500  1.133700  1
  H  H478  1  0.688700  0.886300  1.095600  1
  H  H479  1  0.750400  0.778100  1.058900  1
  H  H480  1  0.644700  0.707200  1.057600  1
  H  H481  1  0.572300  0.770300  0.698000  1
  H  H482  1  0.665500  0.741200  0.726500  1
  H  H483  1  0.481700  0.640700  0.717400  1
  H  H484  1  0.567800  0.630900  0.769700  1
  H  H485  1  0.296400  0.840300  0.781300  1
  H  H486  1  0.229700  0.901000  0.802600  1
  H  H487  1  0.171500  0.824300  0.887700  1
  H  H488  1  0.174700  0.750000  0.831100  1
  Si  Si489  1  0.692010  0.965990  0.426610  1.0
  Si  Si490  1  0.006640  0.358990  0.401320  1
  Si  Si491  1  0.307990  0.034010  0.573390  1.0
  Si  Si492  1  0.993360  0.641010  0.598680  1
  Si  Si493  1  -0.176240  0.538030  0.082550  1.0
  Si  Si494  1  0.491350  1.152560  0.089800  1
  Si  Si495  1  1.176240  1.461970  0.917450  1.0
  Si  Si496  1  0.508650  0.847440  0.910200  1
