# generated using pymatgen
data_SiH24C20SF
_symmetry_space_group_name_H-M   'P 1'
_cell_length_a   15.09980000
_cell_length_b   15.28270000
_cell_length_c   17.02800000
_cell_angle_alpha   90.00000000
_cell_angle_beta   103.86300000
_cell_angle_gamma   90.00000000
_symmetry_Int_Tables_number   1
_chemical_formula_structural   SiH24C20SF
_chemical_formula_sum   'Si8 H192 C160 S8 F8'
_cell_volume   3815.01840519
_cell_formula_units_Z   8
loop_
 _symmetry_equiv_pos_site_id
 _symmetry_equiv_pos_as_xyz
  1  'x, y, z'
loop_
 _atom_site_type_symbol
 _atom_site_label
 _atom_site_symmetry_multiplicity
 _atom_site_fract_x
 _atom_site_fract_y
 _atom_site_fract_z
 _atom_site_occupancy
  C  C1  1  0.256060  0.602320  0.263410  1
  C  C2  1  0.163810  0.648570  0.092420  1
  C  C3  1  0.288540  0.485560  0.131460  1
  C  C4  1  0.371190  0.670330  0.157410  1
  C  C5  1  0.252360  0.604450  0.333450  1
  C  C6  1  0.071100  0.605700  0.084600  1
  C  C7  1  0.220770  0.418000  0.148110  1
  C  C8  1  0.459600  0.625000  0.214600  1
  C  C9  1  0.250720  0.605770  0.417260  1
  C  C10  1  -0.013200  0.651800  0.039400  1
  C  C11  1  0.244590  0.324180  0.130860  1
  C  C12  1  0.539200  0.687200  0.236200  1
  C  C13  1  0.166320  0.604850  0.439360  1
  C  C14  1  0.334110  0.607660  0.476400  1
  C  C15  1  0.082320  0.601450  0.380220  1
  C  C16  1  0.165890  0.607660  0.523600  1
  C  C17  1  0.333680  0.604850  0.560640  1
  C  C18  1  0.419120  0.610830  0.454360  1
  C  C19  1  0.001750  0.603800  0.403590  1
  C  C20  1  0.249280  0.605770  0.582740  1
  C  C21  1  0.080880  0.610830  0.545640  1
  C  C22  1  0.417680  0.601450  0.619780  1
  C  C23  1  0.499160  0.609650  0.512630  1
  C  C24  1  0.000840  0.609650  0.487370  1
  C  C25  1  0.247640  0.604450  0.666550  1
  C  C26  1  0.498250  0.603800  0.596410  1
  C  C27  1  0.591500  0.611700  0.508000  1
  C  C28  1  -0.091500  0.611700  0.492000  1
  C  C29  1  -0.150800  0.606800  0.422200  1
  C  C30  1  0.243940  0.602320  0.736590  1
  C  C31  1  0.650800  0.606800  0.577800  1
  C  C32  1  0.336190  0.648570  0.907580  1
  C  C33  1  0.211460  0.485560  0.868540  1
  C  C34  1  0.128810  0.670330  0.842590  1
  C  C35  1  0.428900  0.605700  0.915400  1
  C  C36  1  0.279230  0.418000  0.851890  1
  C  C37  1  0.040400  0.625000  0.785400  1
  C  C38  1  0.513200  0.651800  0.960600  1
  C  C39  1  0.255410  0.324180  0.869140  1
  C  C40  1  -0.039200  0.687200  0.763800  1
  C  C41  1  -0.243940  1.102320  -0.236590  1
  C  C42  1  -0.336190  1.148570  -0.407580  1
  C  C43  1  -0.211460  0.985560  -0.368540  1
  C  C44  1  -0.128810  1.170330  -0.342590  1
  C  C45  1  -0.247640  1.104450  -0.166550  1
  C  C46  1  -0.428900  1.105700  -0.415400  1
  C  C47  1  -0.279230  0.918000  -0.351890  1
  C  C48  1  -0.040400  1.125000  -0.285400  1
  C  C49  1  -0.249280  1.105770  -0.082740  1
  C  C50  1  -0.513200  1.151800  -0.460600  1
  C  C51  1  -0.255410  0.824180  -0.369140  1
  C  C52  1  0.039200  1.187200  -0.263800  1
  C  C53  1  -0.333680  1.104850  -0.060640  1
  C  C54  1  -0.165890  1.107660  -0.023600  1
  C  C55  1  -0.417680  1.101450  -0.119780  1
  C  C56  1  -0.334110  1.107660  0.023600  1
  C  C57  1  -0.166320  1.104850  0.060640  1
  C  C58  1  -0.080880  1.110830  -0.045640  1
  C  C59  1  -0.498250  1.103800  -0.096410  1
  C  C60  1  -0.250720  1.105770  0.082740  1
  C  C61  1  -0.419120  1.110830  0.045640  1
  C  C62  1  -0.082320  1.101450  0.119780  1
  C  C63  1  -0.000840  1.109650  0.012630  1
  C  C64  1  -0.499160  1.109650  -0.012630  1
  C  C65  1  -0.252360  1.104450  0.166550  1
  C  C66  1  -0.001750  1.103800  0.096410  1
  C  C67  1  0.091500  1.111700  0.008000  1
  C  C68  1  -0.591500  1.111700  -0.008000  1
  C  C69  1  -0.650800  1.106800  -0.077800  1
  C  C70  1  -0.256060  1.102320  0.236590  1
  C  C71  1  0.150800  1.106800  0.077800  1
  C  C72  1  -0.163810  1.148570  0.407580  1
  C  C73  1  -0.288540  0.985560  0.368540  1
  C  C74  1  -0.371190  1.170330  0.342590  1
  C  C75  1  -0.071100  1.105700  0.415400  1
  C  C76  1  -0.220770  0.918000  0.351890  1
  C  C77  1  -0.459600  1.125000  0.285400  1
  C  C78  1  0.013200  1.151800  0.460600  1
  C  C79  1  -0.244590  0.824180  0.369140  1
  C  C80  1  -0.539200  1.187200  0.263800  1
  C  C81  1  0.743940  0.397680  0.736590  1
  C  C82  1  0.836190  0.351430  0.907580  1
  C  C83  1  0.711460  0.514440  0.868540  1
  C  C84  1  0.628810  0.329670  0.842590  1
  C  C85  1  0.747640  0.395550  0.666550  1
  C  C86  1  0.928900  0.394300  0.915400  1
  C  C87  1  0.779230  0.582000  0.851890  1
  C  C88  1  0.540400  0.375000  0.785400  1
  C  C89  1  0.749280  0.394230  0.582740  1
  C  C90  1  1.013200  0.348200  0.960600  1
  C  C91  1  0.755410  0.675820  0.869140  1
  C  C92  1  0.460800  0.312800  0.763800  1
  C  C93  1  0.833680  0.395150  0.560640  1
  C  C94  1  0.665890  0.392340  0.523600  1
  C  C95  1  0.917680  0.398550  0.619780  1
  C  C96  1  0.834110  0.392340  0.476400  1
  C  C97  1  0.666320  0.395150  0.439360  1
  C  C98  1  0.580880  0.389170  0.545640  1
  C  C99  1  0.998250  0.396200  0.596410  1
  C  C100  1  0.750720  0.394230  0.417260  1
  C  C101  1  0.919120  0.389170  0.454360  1
  C  C102  1  0.582320  0.398550  0.380220  1
  C  C103  1  0.500840  0.390350  0.487370  1
  C  C104  1  0.999160  0.390350  0.512630  1
  C  C105  1  0.752360  0.395550  0.333450  1
  C  C106  1  0.501750  0.396200  0.403590  1
  C  C107  1  0.408500  0.388300  0.492000  1
  C  C108  1  1.091500  0.388300  0.508000  1
  C  C109  1  1.150800  0.393200  0.577800  1
  C  C110  1  0.756060  0.397680  0.263410  1
  C  C111  1  0.349200  0.393200  0.422200  1
  C  C112  1  0.663810  0.351430  0.092420  1
  C  C113  1  0.788540  0.514440  0.131460  1
  C  C114  1  0.871190  0.329670  0.157410  1
  C  C115  1  0.571100  0.394300  0.084600  1
  C  C116  1  0.720770  0.582000  0.148110  1
  C  C117  1  0.959600  0.375000  0.214600  1
  C  C118  1  0.486800  0.348200  0.039400  1
  C  C119  1  0.744590  0.675820  0.130860  1
  C  C120  1  1.039200  0.312800  0.236200  1
  C  C121  1  0.243940  0.897680  0.236590  1
  C  C122  1  0.336190  0.851430  0.407580  1
  C  C123  1  0.211460  1.014440  0.368540  1
  C  C124  1  0.128810  0.829670  0.342590  1
  C  C125  1  0.247640  0.895550  0.166550  1
  C  C126  1  0.428900  0.894300  0.415400  1
  C  C127  1  0.279230  1.082000  0.351890  1
  C  C128  1  0.040400  0.875000  0.285400  1
  C  C129  1  0.249280  0.894230  0.082740  1
  C  C130  1  0.513200  0.848200  0.460600  1
  C  C131  1  0.255410  1.175820  0.369140  1
  C  C132  1  -0.039200  0.812800  0.263800  1
  C  C133  1  0.333680  0.895150  0.060640  1
  C  C134  1  0.165890  0.892340  0.023600  1
  C  C135  1  0.417680  0.898550  0.119780  1
  C  C136  1  0.334110  0.892340  -0.023600  1
  C  C137  1  0.166320  0.895150  -0.060640  1
  C  C138  1  0.080880  0.889170  0.045640  1
  C  C139  1  0.498250  0.896200  0.096410  1
  C  C140  1  0.250720  0.894230  -0.082740  1
  C  C141  1  0.419120  0.889170  -0.045640  1
  C  C142  1  0.082320  0.898550  -0.119780  1
  C  C143  1  0.000840  0.890350  -0.012630  1
  C  C144  1  0.499160  0.890350  0.012630  1
  C  C145  1  0.252360  0.895550  -0.166550  1
  C  C146  1  0.001750  0.896200  -0.096410  1
  C  C147  1  -0.091500  0.888300  -0.008000  1
  C  C148  1  0.591500  0.888300  0.008000  1
  C  C149  1  0.650800  0.893200  0.077800  1
  C  C150  1  0.256060  0.897680  -0.236590  1
  C  C151  1  -0.150800  0.893200  -0.077800  1
  C  C152  1  0.163810  0.851430  -0.407580  1
  C  C153  1  0.288540  1.014440  -0.368540  1
  C  C154  1  0.371190  0.829670  -0.342590  1
  C  C155  1  0.071100  0.894300  -0.415400  1
  C  C156  1  0.220770  1.082000  -0.351890  1
  C  C157  1  0.459600  0.875000  -0.285400  1
  C  C158  1  -0.013200  0.848200  -0.460600  1
  C  C159  1  0.244590  1.175820  -0.369140  1
  C  C160  1  0.539200  0.812800  -0.263800  1
  F  F161  1  -0.242700  0.607100  0.406400  1
  F  F162  1  0.742700  0.607100  0.593600  1
  F  F163  1  -0.742700  1.107100  -0.093600  1
  F  F164  1  0.242700  1.107100  0.093600  1
  F  F165  1  1.242700  0.392900  0.593600  1
  F  F166  1  0.257300  0.392900  0.406400  1
  F  F167  1  0.742700  0.892900  0.093600  1
  F  F168  1  -0.242700  0.892900  -0.093600  1
  H  H169  1  0.158700  0.709400  0.110800  1
  H  H170  1  0.174100  0.652300  0.037200  1
  H  H171  1  0.287300  0.483500  0.073100  1
  H  H172  1  0.350500  0.468000  0.161500  1
  H  H173  1  0.379000  0.675200  0.101500  1
  H  H174  1  0.363000  0.729900  0.177400  1
  H  H175  1  0.072800  0.548000  0.058600  1
  H  H176  1  0.064000  0.594400  0.140000  1
  H  H177  1  0.218200  0.422500  0.205500  1
  H  H178  1  0.159300  0.432000  0.114400  1
  H  H179  1  0.444200  0.604300  0.264900  1
  H  H180  1  0.477100  0.573400  0.186600  1
  H  H181  1  -0.026600  0.700700  0.072000  1
  H  H182  1  -0.064600  0.610800  0.028500  1
  H  H183  1  -0.003700  0.674200  -0.011900  1
  H  H184  1  0.243200  0.318100  0.073300  1
  H  H185  1  0.200100  0.284100  0.144900  1
  H  H186  1  0.305800  0.310000  0.163300  1
  H  H187  1  0.554200  0.708300  0.186600  1
  H  H188  1  0.592100  0.656800  0.269700  1
  H  H189  1  0.523100  0.737000  0.266300  1
  H  H190  1  0.082000  0.597500  0.324500  1
  H  H191  1  0.420300  0.613800  0.398900  1
  H  H192  1  0.079700  0.613800  0.601100  1
  H  H193  1  0.418000  0.597500  0.675500  1
  H  H194  1  0.609000  0.616300  0.458100  1
  H  H195  1  -0.109000  0.616300  0.541900  1
  H  H196  1  0.341300  0.709400  0.889200  1
  H  H197  1  0.325900  0.652300  0.962800  1
  H  H198  1  0.212700  0.483500  0.926900  1
  H  H199  1  0.149500  0.468000  0.838500  1
  H  H200  1  0.121000  0.675200  0.898500  1
  H  H201  1  0.137000  0.729900  0.822600  1
  H  H202  1  0.427200  0.548000  0.941400  1
  H  H203  1  0.436000  0.594400  0.860000  1
  H  H204  1  0.281800  0.422500  0.794500  1
  H  H205  1  0.340700  0.432000  0.885600  1
  H  H206  1  0.055800  0.604300  0.735100  1
  H  H207  1  0.022900  0.573400  0.813400  1
  H  H208  1  0.526600  0.700700  0.928000  1
  H  H209  1  0.564600  0.610800  0.971500  1
  H  H210  1  0.503700  0.674200  1.011900  1
  H  H211  1  0.256800  0.318100  0.926700  1
  H  H212  1  0.299900  0.284100  0.855100  1
  H  H213  1  0.194200  0.310000  0.836700  1
  H  H214  1  -0.054200  0.708300  0.813400  1
  H  H215  1  -0.092100  0.656800  0.730300  1
  H  H216  1  -0.023100  0.737000  0.733700  1
  H  H217  1  -0.341300  1.209400  -0.389200  1
  H  H218  1  -0.325900  1.152300  -0.462800  1
  H  H219  1  -0.212700  0.983500  -0.426900  1
  H  H220  1  -0.149500  0.968000  -0.338500  1
  H  H221  1  -0.121000  1.175200  -0.398500  1
  H  H222  1  -0.137000  1.229900  -0.322600  1
  H  H223  1  -0.427200  1.048000  -0.441400  1
  H  H224  1  -0.436000  1.094400  -0.360000  1
  H  H225  1  -0.281800  0.922500  -0.294500  1
  H  H226  1  -0.340700  0.932000  -0.385600  1
  H  H227  1  -0.055800  1.104300  -0.235100  1
  H  H228  1  -0.022900  1.073400  -0.313400  1
  H  H229  1  -0.526600  1.200700  -0.428000  1
  H  H230  1  -0.564600  1.110800  -0.471500  1
  H  H231  1  -0.503700  1.174200  -0.511900  1
  H  H232  1  -0.256800  0.818100  -0.426700  1
  H  H233  1  -0.299900  0.784100  -0.355100  1
  H  H234  1  -0.194200  0.810000  -0.336700  1
  H  H235  1  0.054200  1.208300  -0.313400  1
  H  H236  1  0.092100  1.156800  -0.230300  1
  H  H237  1  0.023100  1.237000  -0.233700  1
  H  H238  1  -0.418000  1.097500  -0.175500  1
  H  H239  1  -0.079700  1.113800  -0.101100  1
  H  H240  1  -0.420300  1.113800  0.101100  1
  H  H241  1  -0.082000  1.097500  0.175500  1
  H  H242  1  0.109000  1.116300  -0.041900  1
  H  H243  1  -0.609000  1.116300  0.041900  1
  H  H244  1  -0.158700  1.209400  0.389200  1
  H  H245  1  -0.174100  1.152300  0.462800  1
  H  H246  1  -0.287300  0.983500  0.426900  1
  H  H247  1  -0.350500  0.968000  0.338500  1
  H  H248  1  -0.379000  1.175200  0.398500  1
  H  H249  1  -0.363000  1.229900  0.322600  1
  H  H250  1  -0.072800  1.048000  0.441400  1
  H  H251  1  -0.064000  1.094400  0.360000  1
  H  H252  1  -0.218200  0.922500  0.294500  1
  H  H253  1  -0.159300  0.932000  0.385600  1
  H  H254  1  -0.444200  1.104300  0.235100  1
  H  H255  1  -0.477100  1.073400  0.313400  1
  H  H256  1  0.026600  1.200700  0.428000  1
  H  H257  1  0.064600  1.110800  0.471500  1
  H  H258  1  0.003700  1.174200  0.511900  1
  H  H259  1  -0.243200  0.818100  0.426700  1
  H  H260  1  -0.200100  0.784100  0.355100  1
  H  H261  1  -0.305800  0.810000  0.336700  1
  H  H262  1  -0.554200  1.208300  0.313400  1
  H  H263  1  -0.592100  1.156800  0.230300  1
  H  H264  1  -0.523100  1.237000  0.233700  1
  H  H265  1  0.841300  0.290600  0.889200  1
  H  H266  1  0.825900  0.347700  0.962800  1
  H  H267  1  0.712700  0.516500  0.926900  1
  H  H268  1  0.649500  0.532000  0.838500  1
  H  H269  1  0.621000  0.324800  0.898500  1
  H  H270  1  0.637000  0.270100  0.822600  1
  H  H271  1  0.927200  0.452000  0.941400  1
  H  H272  1  0.936000  0.405600  0.860000  1
  H  H273  1  0.781800  0.577500  0.794500  1
  H  H274  1  0.840700  0.568000  0.885600  1
  H  H275  1  0.555800  0.395700  0.735100  1
  H  H276  1  0.522900  0.426600  0.813400  1
  H  H277  1  1.026600  0.299300  0.928000  1
  H  H278  1  1.064600  0.389200  0.971500  1
  H  H279  1  1.003700  0.325800  1.011900  1
  H  H280  1  0.756800  0.681900  0.926700  1
  H  H281  1  0.799900  0.715900  0.855100  1
  H  H282  1  0.694200  0.690000  0.836700  1
  H  H283  1  0.445800  0.291700  0.813400  1
  H  H284  1  0.407900  0.343200  0.730300  1
  H  H285  1  0.476900  0.263000  0.733700  1
  H  H286  1  0.918000  0.402500  0.675500  1
  H  H287  1  0.579700  0.386200  0.601100  1
  H  H288  1  0.920300  0.386200  0.398900  1
  H  H289  1  0.582000  0.402500  0.324500  1
  H  H290  1  0.391000  0.383700  0.541900  1
  H  H291  1  1.109000  0.383700  0.458100  1
  H  H292  1  0.658700  0.290600  0.110800  1
  H  H293  1  0.674100  0.347700  0.037200  1
  H  H294  1  0.787300  0.516500  0.073100  1
  H  H295  1  0.850500  0.532000  0.161500  1
  H  H296  1  0.879000  0.324800  0.101500  1
  H  H297  1  0.863000  0.270100  0.177400  1
  H  H298  1  0.572800  0.452000  0.058600  1
  H  H299  1  0.564000  0.405600  0.140000  1
  H  H300  1  0.718200  0.577500  0.205500  1
  H  H301  1  0.659300  0.568000  0.114400  1
  H  H302  1  0.944200  0.395700  0.264900  1
  H  H303  1  0.977100  0.426600  0.186600  1
  H  H304  1  0.473400  0.299300  0.072000  1
  H  H305  1  0.435400  0.389200  0.028500  1
  H  H306  1  0.496300  0.325800  -0.011900  1
  H  H307  1  0.743200  0.681900  0.073300  1
  H  H308  1  0.700100  0.715900  0.144900  1
  H  H309  1  0.805800  0.690000  0.163300  1
  H  H310  1  1.054200  0.291700  0.186600  1
  H  H311  1  1.092100  0.343200  0.269700  1
  H  H312  1  1.023100  0.263000  0.266300  1
  H  H313  1  0.341300  0.790600  0.389200  1
  H  H314  1  0.325900  0.847700  0.462800  1
  H  H315  1  0.212700  1.016500  0.426900  1
  H  H316  1  0.149500  1.032000  0.338500  1
  H  H317  1  0.121000  0.824800  0.398500  1
  H  H318  1  0.137000  0.770100  0.322600  1
  H  H319  1  0.427200  0.952000  0.441400  1
  H  H320  1  0.436000  0.905600  0.360000  1
  H  H321  1  0.281800  1.077500  0.294500  1
  H  H322  1  0.340700  1.068000  0.385600  1
  H  H323  1  0.055800  0.895700  0.235100  1
  H  H324  1  0.022900  0.926600  0.313400  1
  H  H325  1  0.526600  0.799300  0.428000  1
  H  H326  1  0.564600  0.889200  0.471500  1
  H  H327  1  0.503700  0.825800  0.511900  1
  H  H328  1  0.256800  1.181900  0.426700  1
  H  H329  1  0.299900  1.215900  0.355100  1
  H  H330  1  0.194200  1.190000  0.336700  1
  H  H331  1  -0.054200  0.791700  0.313400  1
  H  H332  1  -0.092100  0.843200  0.230300  1
  H  H333  1  -0.023100  0.763000  0.233700  1
  H  H334  1  0.418000  0.902500  0.175500  1
  H  H335  1  0.079700  0.886200  0.101100  1
  H  H336  1  0.420300  0.886200  -0.101100  1
  H  H337  1  0.082000  0.902500  -0.175500  1
  H  H338  1  -0.109000  0.883700  0.041900  1
  H  H339  1  0.609000  0.883700  -0.041900  1
  H  H340  1  0.158700  0.790600  -0.389200  1
  H  H341  1  0.174100  0.847700  -0.462800  1
  H  H342  1  0.287300  1.016500  -0.426900  1
  H  H343  1  0.350500  1.032000  -0.338500  1
  H  H344  1  0.379000  0.824800  -0.398500  1
  H  H345  1  0.363000  0.770100  -0.322600  1
  H  H346  1  0.072800  0.952000  -0.441400  1
  H  H347  1  0.064000  0.905600  -0.360000  1
  H  H348  1  0.218200  1.077500  -0.294500  1
  H  H349  1  0.159300  1.068000  -0.385600  1
  H  H350  1  0.444200  0.895700  -0.235100  1
  H  H351  1  0.477100  0.926600  -0.313400  1
  H  H352  1  -0.026600  0.799300  -0.428000  1
  H  H353  1  -0.064600  0.889200  -0.471500  1
  H  H354  1  -0.003700  0.825800  -0.511900  1
  H  H355  1  0.243200  1.181900  -0.426700  1
  H  H356  1  0.200100  1.215900  -0.355100  1
  H  H357  1  0.305800  1.190000  -0.336700  1
  H  H358  1  0.554200  0.791700  -0.313400  1
  H  H359  1  0.592100  0.843200  -0.230300  1
  H  H360  1  0.523100  0.763000  -0.233700  1
  S  S361  1  -0.104070  0.599040  0.336820  1
  S  S362  1  0.604070  0.599040  0.663180  1
  S  S363  1  -0.604070  1.099040  -0.163180  1
  S  S364  1  0.104070  1.099040  0.163180  1
  S  S365  1  1.104070  0.400960  0.663180  1
  S  S366  1  0.395930  0.400960  0.336820  1
  S  S367  1  0.604070  0.900960  0.163180  1
  S  S368  1  -0.104070  0.900960  -0.163180  1
  Si  Si369  1  0.269370  0.601550  0.158680  1.0
  Si  Si370  1  0.230630  0.601550  0.841320  1
  Si  Si371  1  -0.230630  1.101550  -0.341320  1.0
  Si  Si372  1  -0.269370  1.101550  0.341320  1
  Si  Si373  1  0.730630  0.398450  0.841320  1.0
  Si  Si374  1  0.769370  0.398450  0.158680  1
  Si  Si375  1  0.230630  0.898450  0.341320  1.0
  Si  Si376  1  0.269370  0.898450  -0.341320  1
