# generated using pymatgen
data_SiH29(C7F)4
_symmetry_space_group_name_H-M   'P 1'
_cell_length_a   16.45390000
_cell_length_b   16.51600000
_cell_length_c   17.25900000
_cell_angle_alpha   90.00000000
_cell_angle_beta   90.00000000
_cell_angle_gamma   90.00000000
_symmetry_Int_Tables_number   1
_chemical_formula_structural   SiH29(C7F)4
_chemical_formula_sum   'Si8 H232 C224 F32'
_cell_volume   4690.17833741
_cell_formula_units_Z   8
loop_
 _symmetry_equiv_pos_site_id
 _symmetry_equiv_pos_as_xyz
  1  'x, y, z'
loop_
 _atom_site_type_symbol
 _atom_site_label
 _atom_site_symmetry_multiplicity
 _atom_site_fract_x
 _atom_site_fract_y
 _atom_site_fract_z
 _atom_site_occupancy
  C  C1  1  0.053950  0.376340  0.256910  1
  C  C2  1  -0.051400  0.261570  0.344750  1
  C  C3  1  0.084110  0.196960  0.234430  1
  C  C4  1  -0.063500  0.277540  0.162170  1
  C  C5  1  0.091980  0.438830  0.259030  1
  C  C6  1  -0.128260  0.314580  0.354260  1
  C  C7  1  0.001960  0.283050  0.416880  1
  C  C8  1  0.138150  0.173340  0.303510  1
  C  C9  1  0.049400  0.113890  0.210060  1
  C  C10  1  -0.015870  0.290690  0.086210  1
  C  C11  1  -0.130220  0.342440  0.157300  1
  C  C12  1  0.142050  0.509820  0.257630  1
  C  C13  1  -0.132890  0.333240  0.440710  1
  C  C14  1  -0.044180  0.350320  0.459780  1
  C  C15  1  0.169500  0.085900  0.289300  1
  C  C16  1  0.122250  0.056420  0.216610  1
  C  C17  1  -0.082180  0.307920  0.026310  1
  C  C18  1  -0.151220  0.350850  0.070610  1
  C  C19  1  0.165450  0.542750  0.184740  1
  C  C20  1  0.169130  0.545880  0.327180  1
  C  C21  1  0.133370  0.512070  0.114750  1
  C  C22  1  0.222330  0.609290  0.182040  1
  C  C23  1  0.225510  0.612940  0.324370  1
  C  C24  1  0.141500  0.519060  0.400200  1
  C  C25  1  0.155670  0.544390  0.043780  1
  C  C26  1  0.245840  0.640140  0.109360  1
  C  C27  1  0.253100  0.642170  0.251700  1
  C  C28  1  0.252160  0.648310  0.394080  1
  C  C29  1  0.167040  0.555520  0.468110  1
  C  C30  1  0.124630  0.514820  -0.027760  1
  C  C31  1  0.213570  0.609860  0.041090  1
  C  C32  1  0.311430  0.706490  0.249460  1
  C  C33  1  0.224040  0.621590  0.464920  1
  C  C34  1  0.140280  0.529370  0.543220  1
  C  C35  1  0.148060  0.545550  -0.096390  1
  C  C36  1  0.235940  0.640680  -0.033100  1
  C  C37  1  0.360810  0.760410  0.248310  1
  C  C38  1  0.249950  0.657230  0.536440  1
  C  C39  1  0.166420  0.565110  0.608590  1
  C  C40  1  0.205130  0.609690  -0.099220  1
  C  C41  1  0.222100  0.630560  0.605490  1
  C  C42  1  0.539810  0.785600  0.236270  1
  C  C43  1  0.434570  0.896560  0.341230  1
  C  C44  1  0.416790  0.908820  0.162880  1
  C  C45  1  0.558000  0.723340  0.301110  1
  C  C46  1  0.550260  0.735830  0.161370  1
  C  C47  1  0.353990  0.940120  0.357370  1
  C  C48  1  0.446780  0.847080  0.415590  1
  C  C49  1  0.425380  0.872310  0.081360  1
  C  C50  1  0.329970  0.943530  0.160590  1
  C  C51  1  0.584800  0.644300  0.256700  1
  C  C52  1  0.612300  0.671400  0.180600  1
  C  C53  1  0.360520  0.964500  0.443140  1
  C  C54  1  0.412490  0.900060  0.481590  1
  C  C55  1  0.373080  0.927130  0.027570  1
  C  C56  1  0.325490  0.983210  0.080820  1
  C  C57  1  0.446050  0.623660  -0.243090  1
  C  C58  1  0.551400  0.738430  -0.155250  1
  C  C59  1  0.415890  0.803040  -0.265570  1
  C  C60  1  0.563500  0.722460  -0.337830  1
  C  C61  1  0.408020  0.561170  -0.240970  1
  C  C62  1  0.628260  0.685420  -0.145740  1
  C  C63  1  0.498040  0.716950  -0.083120  1
  C  C64  1  0.361850  0.826660  -0.196490  1
  C  C65  1  0.450600  0.886110  -0.289940  1
  C  C66  1  0.515870  0.709310  -0.413790  1
  C  C67  1  0.630220  0.657560  -0.342700  1
  C  C68  1  0.357950  0.490180  -0.242370  1
  C  C69  1  0.632890  0.666760  -0.059290  1
  C  C70  1  0.544180  0.649680  -0.040220  1
  C  C71  1  0.330500  0.914100  -0.210700  1
  C  C72  1  0.377750  0.943580  -0.283390  1
  C  C73  1  0.582180  0.692080  -0.473690  1
  C  C74  1  0.651220  0.649150  -0.429390  1
  C  C75  1  0.334550  0.457250  -0.315260  1
  C  C76  1  0.330870  0.454120  -0.172820  1
  C  C77  1  0.366630  0.487930  -0.385250  1
  C  C78  1  0.277670  0.390710  -0.317960  1
  C  C79  1  0.274490  0.387060  -0.175630  1
  C  C80  1  0.358500  0.480940  -0.099800  1
  C  C81  1  0.344330  0.455610  -0.456220  1
  C  C82  1  0.254160  0.359860  -0.390640  1
  C  C83  1  0.246900  0.357830  -0.248300  1
  C  C84  1  0.247840  0.351690  -0.105920  1
  C  C85  1  0.332960  0.444480  -0.031890  1
  C  C86  1  0.375370  0.485180  -0.527760  1
  C  C87  1  0.286430  0.390140  -0.458910  1
  C  C88  1  0.188570  0.293510  -0.250540  1
  C  C89  1  0.275960  0.378410  -0.035080  1
  C  C90  1  0.359720  0.470630  0.043220  1
  C  C91  1  0.351940  0.454450  -0.596390  1
  C  C92  1  0.264060  0.359320  -0.533100  1
  C  C93  1  0.139190  0.239590  -0.251690  1
  C  C94  1  0.250050  0.342770  0.036440  1
  C  C95  1  0.333580  0.434890  0.108590  1
  C  C96  1  0.294870  0.390310  -0.599220  1
  C  C97  1  0.277900  0.369440  0.105490  1
  C  C98  1  -0.039810  0.214400  -0.263730  1
  C  C99  1  0.065430  0.103440  -0.158770  1
  C  C100  1  0.083210  0.091180  -0.337120  1
  C  C101  1  -0.058000  0.276660  -0.198890  1
  C  C102  1  -0.050260  0.264170  -0.338630  1
  C  C103  1  0.146010  0.059880  -0.142630  1
  C  C104  1  0.053220  0.152920  -0.084410  1
  C  C105  1  0.074620  0.127690  -0.418640  1
  C  C106  1  0.170030  0.056470  -0.339410  1
  C  C107  1  -0.084800  0.355700  -0.243300  1
  C  C108  1  -0.112300  0.328600  -0.319400  1
  C  C109  1  0.139480  0.035500  -0.056860  1
  C  C110  1  0.087510  0.099940  -0.018410  1
  C  C111  1  0.126920  0.072870  -0.472430  1
  C  C112  1  0.174510  0.016790  -0.419180  1
  C  C113  1  -0.446050  1.123660  0.743090  1
  C  C114  1  -0.551400  1.238430  0.655250  1
  C  C115  1  -0.415890  1.303040  0.765570  1
  C  C116  1  -0.563500  1.222460  0.837830  1
  C  C117  1  -0.408020  1.061170  0.740970  1
  C  C118  1  -0.628260  1.185420  0.645740  1
  C  C119  1  -0.498040  1.216950  0.583120  1
  C  C120  1  -0.361850  1.326660  0.696490  1
  C  C121  1  -0.450600  1.386110  0.789940  1
  C  C122  1  -0.515870  1.209310  0.913790  1
  C  C123  1  -0.630220  1.157560  0.842700  1
  C  C124  1  -0.357950  0.990180  0.742370  1
  C  C125  1  -0.632890  1.166760  0.559290  1
  C  C126  1  -0.544180  1.149680  0.540220  1
  C  C127  1  -0.330500  1.414100  0.710700  1
  C  C128  1  -0.377750  1.443580  0.783390  1
  C  C129  1  -0.582180  1.192080  0.973690  1
  C  C130  1  -0.651220  1.149150  0.929390  1
  C  C131  1  -0.334550  0.957250  0.815260  1
  C  C132  1  -0.330870  0.954120  0.672820  1
  C  C133  1  -0.366630  0.987930  0.885250  1
  C  C134  1  -0.277670  0.890710  0.817960  1
  C  C135  1  -0.274490  0.887060  0.675630  1
  C  C136  1  -0.358500  0.980940  0.599800  1
  C  C137  1  -0.344330  0.955610  0.956220  1
  C  C138  1  -0.254160  0.859860  0.890640  1
  C  C139  1  -0.246900  0.857830  0.748300  1
  C  C140  1  -0.247840  0.851690  0.605920  1
  C  C141  1  -0.332960  0.944480  0.531890  1
  C  C142  1  -0.375370  0.985180  1.027760  1
  C  C143  1  -0.286430  0.890140  0.958910  1
  C  C144  1  -0.188570  0.793510  0.750540  1
  C  C145  1  -0.275960  0.878410  0.535080  1
  C  C146  1  -0.359720  0.970630  0.456780  1
  C  C147  1  -0.351940  0.954450  1.096390  1
  C  C148  1  -0.264060  0.859320  1.033100  1
  C  C149  1  -0.139190  0.739590  0.751690  1
  C  C150  1  -0.250050  0.842770  0.463560  1
  C  C151  1  -0.333580  0.934890  0.391410  1
  C  C152  1  -0.294870  0.890310  1.099220  1
  C  C153  1  -0.277900  0.869440  0.394510  1
  C  C154  1  0.039810  0.714400  0.763730  1
  C  C155  1  -0.065430  0.603440  0.658770  1
  C  C156  1  -0.083210  0.591180  0.837120  1
  C  C157  1  0.058000  0.776660  0.698890  1
  C  C158  1  0.050260  0.764170  0.838630  1
  C  C159  1  -0.146010  0.559880  0.642630  1
  C  C160  1  -0.053220  0.652920  0.584410  1
  C  C161  1  -0.074620  0.627690  0.918640  1
  C  C162  1  -0.170030  0.556470  0.839410  1
  C  C163  1  0.084800  0.855700  0.743300  1
  C  C164  1  0.112300  0.828600  0.819400  1
  C  C165  1  -0.139480  0.535500  0.556860  1
  C  C166  1  -0.087510  0.599940  0.518410  1
  C  C167  1  -0.126920  0.572870  0.972430  1
  C  C168  1  -0.174510  0.516790  0.919180  1
  C  C169  1  -0.053950  -0.123660  0.243090  1
  C  C170  1  0.051400  -0.238430  0.155250  1
  C  C171  1  -0.084110  -0.303040  0.265570  1
  C  C172  1  0.063500  -0.222460  0.337830  1
  C  C173  1  -0.091980  -0.061170  0.240970  1
  C  C174  1  0.128260  -0.185420  0.145740  1
  C  C175  1  -0.001960  -0.216950  0.083120  1
  C  C176  1  -0.138150  -0.326660  0.196490  1
  C  C177  1  -0.049400  -0.386110  0.289940  1
  C  C178  1  0.015870  -0.209310  0.413790  1
  C  C179  1  0.130220  -0.157560  0.342700  1
  C  C180  1  -0.142050  0.009820  0.242370  1
  C  C181  1  0.132890  -0.166760  0.059290  1
  C  C182  1  0.044180  -0.149680  0.040220  1
  C  C183  1  -0.169500  -0.414100  0.210700  1
  C  C184  1  -0.122250  -0.443580  0.283390  1
  C  C185  1  0.082180  -0.192080  0.473690  1
  C  C186  1  0.151220  -0.149150  0.429390  1
  C  C187  1  -0.165450  0.042750  0.315260  1
  C  C188  1  -0.169130  0.045880  0.172820  1
  C  C189  1  -0.133370  0.012070  0.385250  1
  C  C190  1  -0.222330  0.109290  0.317960  1
  C  C191  1  -0.225510  0.112940  0.175630  1
  C  C192  1  -0.141500  0.019060  0.099800  1
  C  C193  1  -0.155670  0.044390  0.456220  1
  C  C194  1  -0.245840  0.140140  0.390640  1
  C  C195  1  -0.253100  0.142170  0.248300  1
  C  C196  1  -0.252160  0.148310  0.105920  1
  C  C197  1  -0.167040  0.055520  0.031890  1
  C  C198  1  -0.124630  0.014820  0.527760  1
  C  C199  1  -0.213570  0.109860  0.458910  1
  C  C200  1  -0.311430  0.206490  0.250540  1
  C  C201  1  -0.224040  0.121590  0.035080  1
  C  C202  1  -0.140280  0.029370  -0.043220  1
  C  C203  1  -0.148060  0.045550  0.596390  1
  C  C204  1  -0.235940  0.140680  0.533100  1
  C  C205  1  -0.360810  0.260410  0.251690  1
  C  C206  1  -0.249950  0.157230  -0.036440  1
  C  C207  1  -0.166420  0.065110  -0.108590  1
  C  C208  1  -0.205130  0.109690  0.599220  1
  C  C209  1  -0.222100  0.130560  -0.105490  1
  C  C210  1  -0.539810  0.285600  0.263730  1
  C  C211  1  -0.434570  0.396560  0.158770  1
  C  C212  1  -0.416790  0.408820  0.337120  1
  C  C213  1  -0.558000  0.223340  0.198890  1
  C  C214  1  -0.550260  0.235830  0.338630  1
  C  C215  1  -0.353990  0.440120  0.142630  1
  C  C216  1  -0.446780  0.347080  0.084410  1
  C  C217  1  -0.425380  0.372310  0.418640  1
  C  C218  1  -0.329970  0.443530  0.339410  1
  C  C219  1  -0.584800  0.144300  0.243300  1
  C  C220  1  -0.612300  0.171400  0.319400  1
  C  C221  1  -0.360520  0.464500  0.056860  1
  C  C222  1  -0.412490  0.400060  0.018410  1
  C  C223  1  -0.373080  0.427130  0.472430  1
  C  C224  1  -0.325490  0.483210  0.419180  1
  F  F225  1  0.070820  0.452890  -0.025920  1
  F  F226  1  0.088260  0.466620  0.547230  1
  F  F227  1  0.119420  0.516100  -0.163620  1
  F  F228  1  0.290620  0.701610  -0.036120  1
  F  F229  1  0.303300  0.718860  0.533780  1
  F  F230  1  0.142040  0.539550  0.678740  1
  F  F231  1  0.227950  0.637790  -0.168810  1
  F  F232  1  0.247030  0.663650  0.672160  1
  F  F233  1  0.429180  0.547110  -0.525920  1
  F  F234  1  0.411740  0.533380  0.047230  1
  F  F235  1  0.380580  0.483900  -0.663620  1
  F  F236  1  0.209380  0.298390  -0.536120  1
  F  F237  1  0.196700  0.281140  0.033780  1
  F  F238  1  0.357960  0.460450  0.178740  1
  F  F239  1  0.272050  0.362210  -0.668810  1
  F  F240  1  0.252970  0.336350  0.172160  1
  F  F241  1  -0.429180  1.047110  1.025920  1
  F  F242  1  -0.411740  1.033380  0.452770  1
  F  F243  1  -0.380580  0.983900  1.163620  1
  F  F244  1  -0.209380  0.798390  1.036120  1
  F  F245  1  -0.196700  0.781140  0.466220  1
  F  F246  1  -0.357960  0.960450  0.321260  1
  F  F247  1  -0.272050  0.862210  1.168810  1
  F  F248  1  -0.252970  0.836350  0.327840  1
  F  F249  1  -0.070820  -0.047110  0.525920  1
  F  F250  1  -0.088260  -0.033380  -0.047230  1
  F  F251  1  -0.119420  0.016100  0.663620  1
  F  F252  1  -0.290620  0.201610  0.536120  1
  F  F253  1  -0.303300  0.218860  -0.033780  1
  F  F254  1  -0.142040  0.039550  -0.178740  1
  F  F255  1  -0.227950  0.137790  0.668810  1
  F  F256  1  -0.247030  0.163650  -0.172160  1
  H  H257  1  -0.067900  0.203500  0.348800  1
  H  H258  1  0.120400  0.216400  0.191800  1
  H  H259  1  -0.090700  0.223500  0.158600  1
  H  H260  1  -0.123400  0.365100  0.323700  1
  H  H261  1  -0.177300  0.284900  0.337000  1
  H  H262  1  0.008900  0.235100  0.450600  1
  H  H263  1  0.056300  0.302300  0.400500  1
  H  H264  1  0.106500  0.175600  0.352200  1
  H  H265  1  0.184500  0.211300  0.307900  1
  H  H266  1  0.004900  0.096900  0.245100  1
  H  H267  1  0.028600  0.115600  0.156300  1
  H  H268  1  0.021900  0.337100  0.090900  1
  H  H269  1  0.015500  0.241700  0.072100  1
  H  H270  1  -0.110300  0.394600  0.178300  1
  H  H271  1  -0.178700  0.325600  0.187200  1
  H  H272  1  -0.167600  0.381000  0.451000  1
  H  H273  1  -0.153800  0.286400  0.470400  1
  H  H274  1  -0.034400  0.347300  0.516300  1
  H  H275  1  -0.027700  0.404500  0.440900  1
  H  H276  1  0.157900  0.050900  0.334500  1
  H  H277  1  0.228800  0.085900  0.279500  1
  H  H278  1  0.156800  0.059700  0.169700  1
  H  H279  1  0.103900  -0.000200  0.223300  1
  H  H280  1  -0.102000  0.256800  0.003000  1
  H  H281  1  -0.061000  0.343100  -0.015500  1
  H  H282  1  -0.154200  0.408600  0.055700  1
  H  H283  1  -0.204200  0.325000  0.059200  1
  H  H284  1  0.095800  0.468400  0.116400  1
  H  H285  1  0.104500  0.475000  0.402800  1
  H  H286  1  0.284700  0.682600  0.107100  1
  H  H287  1  0.290300  0.691500  0.392300  1
  H  H288  1  0.583900  0.827200  0.237400  1
  H  H289  1  0.478100  0.938800  0.340100  1
  H  H290  1  0.455000  0.955800  0.166100  1
  H  H291  1  0.508900  0.713100  0.332800  1
  H  H292  1  0.602100  0.742900  0.335300  1
  H  H293  1  0.498000  0.710900  0.145800  1
  H  H294  1  0.569900  0.770600  0.118600  1
  H  H295  1  0.307200  0.903500  0.348800  1
  H  H296  1  0.347900  0.988400  0.323900  1
  H  H297  1  0.505200  0.835700  0.424100  1
  H  H298  1  0.417100  0.795000  0.412500  1
  H  H299  1  0.405100  0.815900  0.080500  1
  H  H300  1  0.482900  0.872600  0.064700  1
  H  H301  1  0.288900  0.900100  0.165800  1
  H  H302  1  0.321600  0.983800  0.202300  1
  H  H303  1  0.629400  0.616600  0.284700  1
  H  H304  1  0.538600  0.606400  0.251500  1
  H  H305  1  0.611100  0.626700  0.142400  1
  H  H306  1  0.667900  0.694200  0.183000  1
  H  H307  1  0.386300  1.018400  0.448200  1
  H  H308  1  0.306000  0.966500  0.467300  1
  H  H309  1  0.379300  0.866900  0.517400  1
  H  H310  1  0.457300  0.925400  0.511300  1
  H  H311  1  0.408300  0.958800  -0.007700  1
  H  H312  1  0.335600  0.893900  -0.004000  1
  H  H313  1  0.268400  0.988000  0.063400  1
  H  H314  1  0.350300  1.037800  0.081900  1
  H  H315  1  0.567900  0.796500  -0.151200  1
  H  H316  1  0.379600  0.783600  -0.308200  1
  H  H317  1  0.590700  0.776500  -0.341400  1
  H  H318  1  0.623400  0.634900  -0.176300  1
  H  H319  1  0.677300  0.715100  -0.163000  1
  H  H320  1  0.491100  0.764900  -0.049400  1
  H  H321  1  0.443700  0.697700  -0.099500  1
  H  H322  1  0.393500  0.824400  -0.147800  1
  H  H323  1  0.315500  0.788700  -0.192100  1
  H  H324  1  0.495100  0.903100  -0.254900  1
  H  H325  1  0.471400  0.884400  -0.343700  1
  H  H326  1  0.478100  0.662900  -0.409100  1
  H  H327  1  0.484500  0.758300  -0.427900  1
  H  H328  1  0.610300  0.605400  -0.321700  1
  H  H329  1  0.678700  0.674400  -0.312800  1
  H  H330  1  0.667600  0.619000  -0.049000  1
  H  H331  1  0.653800  0.713600  -0.029600  1
  H  H332  1  0.534400  0.652700  0.016300  1
  H  H333  1  0.527700  0.595500  -0.059100  1
  H  H334  1  0.342100  0.949100  -0.165500  1
  H  H335  1  0.271200  0.914100  -0.220500  1
  H  H336  1  0.343200  0.940300  -0.330300  1
  H  H337  1  0.396100  1.000200  -0.276700  1
  H  H338  1  0.602000  0.743200  -0.497000  1
  H  H339  1  0.561000  0.656900  -0.515500  1
  H  H340  1  0.654200  0.591400  -0.444300  1
  H  H341  1  0.704200  0.675000  -0.440800  1
  H  H342  1  0.404200  0.531600  -0.383600  1
  H  H343  1  0.395500  0.525000  -0.097200  1
  H  H344  1  0.215300  0.317400  -0.392900  1
  H  H345  1  0.209700  0.308500  -0.107700  1
  H  H346  1  -0.083900  0.172800  -0.262600  1
  H  H347  1  0.021900  0.061200  -0.159900  1
  H  H348  1  0.045000  0.044200  -0.333900  1
  H  H349  1  -0.008900  0.286900  -0.167200  1
  H  H350  1  -0.102100  0.257100  -0.164700  1
  H  H351  1  0.002000  0.289100  -0.354200  1
  H  H352  1  -0.069900  0.229400  -0.381400  1
  H  H353  1  0.192800  0.096500  -0.151200  1
  H  H354  1  0.152100  0.011600  -0.176100  1
  H  H355  1  -0.005200  0.164300  -0.075900  1
  H  H356  1  0.082900  0.205000  -0.087500  1
  H  H357  1  0.094900  0.184100  -0.419500  1
  H  H358  1  0.017100  0.127400  -0.435300  1
  H  H359  1  0.211100  0.099900  -0.334200  1
  H  H360  1  0.178400  0.016200  -0.297700  1
  H  H361  1  -0.129400  0.383400  -0.215300  1
  H  H362  1  -0.038600  0.393600  -0.248500  1
  H  H363  1  -0.111100  0.373300  -0.357600  1
  H  H364  1  -0.167900  0.305800  -0.317000  1
  H  H365  1  0.113700  -0.018400  -0.051800  1
  H  H366  1  0.194000  0.033500  -0.032700  1
  H  H367  1  0.120700  0.133100  0.017400  1
  H  H368  1  0.042700  0.074600  0.011300  1
  H  H369  1  0.091700  0.041200  -0.507700  1
  H  H370  1  0.164400  0.106100  -0.504000  1
  H  H371  1  0.231600  0.012000  -0.436600  1
  H  H372  1  0.149700  -0.037800  -0.418100  1
  H  H373  1  -0.567900  1.296500  0.651200  1
  H  H374  1  -0.379600  1.283600  0.808200  1
  H  H375  1  -0.590700  1.276500  0.841400  1
  H  H376  1  -0.623400  1.134900  0.676300  1
  H  H377  1  -0.677300  1.215100  0.663000  1
  H  H378  1  -0.491100  1.264900  0.549400  1
  H  H379  1  -0.443700  1.197700  0.599500  1
  H  H380  1  -0.393500  1.324400  0.647800  1
  H  H381  1  -0.315500  1.288700  0.692100  1
  H  H382  1  -0.495100  1.403100  0.754900  1
  H  H383  1  -0.471400  1.384400  0.843700  1
  H  H384  1  -0.478100  1.162900  0.909100  1
  H  H385  1  -0.484500  1.258300  0.927900  1
  H  H386  1  -0.610300  1.105400  0.821700  1
  H  H387  1  -0.678700  1.174400  0.812800  1
  H  H388  1  -0.667600  1.119000  0.549000  1
  H  H389  1  -0.653800  1.213600  0.529600  1
  H  H390  1  -0.534400  1.152700  0.483700  1
  H  H391  1  -0.527700  1.095500  0.559100  1
  H  H392  1  -0.342100  1.449100  0.665500  1
  H  H393  1  -0.271200  1.414100  0.720500  1
  H  H394  1  -0.343200  1.440300  0.830300  1
  H  H395  1  -0.396100  1.500200  0.776700  1
  H  H396  1  -0.602000  1.243200  0.997000  1
  H  H397  1  -0.561000  1.156900  1.015500  1
  H  H398  1  -0.654200  1.091400  0.944300  1
  H  H399  1  -0.704200  1.175000  0.940800  1
  H  H400  1  -0.404200  1.031600  0.883600  1
  H  H401  1  -0.395500  1.025000  0.597200  1
  H  H402  1  -0.215300  0.817400  0.892900  1
  H  H403  1  -0.209700  0.808500  0.607700  1
  H  H404  1  0.083900  0.672800  0.762600  1
  H  H405  1  -0.021900  0.561200  0.659900  1
  H  H406  1  -0.045000  0.544200  0.833900  1
  H  H407  1  0.008900  0.786900  0.667200  1
  H  H408  1  0.102100  0.757100  0.664700  1
  H  H409  1  -0.002000  0.789100  0.854200  1
  H  H410  1  0.069900  0.729400  0.881400  1
  H  H411  1  -0.192800  0.596500  0.651200  1
  H  H412  1  -0.152100  0.511600  0.676100  1
  H  H413  1  0.005200  0.664300  0.575900  1
  H  H414  1  -0.082900  0.705000  0.587500  1
  H  H415  1  -0.094900  0.684100  0.919500  1
  H  H416  1  -0.017100  0.627400  0.935300  1
  H  H417  1  -0.211100  0.599900  0.834200  1
  H  H418  1  -0.178400  0.516200  0.797700  1
  H  H419  1  0.129400  0.883400  0.715300  1
  H  H420  1  0.038600  0.893600  0.748500  1
  H  H421  1  0.111100  0.873300  0.857600  1
  H  H422  1  0.167900  0.805800  0.817000  1
  H  H423  1  -0.113700  0.481600  0.551800  1
  H  H424  1  -0.194000  0.533500  0.532700  1
  H  H425  1  -0.120700  0.633100  0.482600  1
  H  H426  1  -0.042700  0.574600  0.488700  1
  H  H427  1  -0.091700  0.541200  1.007700  1
  H  H428  1  -0.164400  0.606100  1.004000  1
  H  H429  1  -0.231600  0.512000  0.936600  1
  H  H430  1  -0.149700  0.462200  0.918100  1
  H  H431  1  0.067900  -0.296500  0.151200  1
  H  H432  1  -0.120400  -0.283600  0.308200  1
  H  H433  1  0.090700  -0.276500  0.341400  1
  H  H434  1  0.123400  -0.134900  0.176300  1
  H  H435  1  0.177300  -0.215100  0.163000  1
  H  H436  1  -0.008900  -0.264900  0.049400  1
  H  H437  1  -0.056300  -0.197700  0.099500  1
  H  H438  1  -0.106500  -0.324400  0.147800  1
  H  H439  1  -0.184500  -0.288700  0.192100  1
  H  H440  1  -0.004900  -0.403100  0.254900  1
  H  H441  1  -0.028600  -0.384400  0.343700  1
  H  H442  1  -0.021900  -0.162900  0.409100  1
  H  H443  1  -0.015500  -0.258300  0.427900  1
  H  H444  1  0.110300  -0.105400  0.321700  1
  H  H445  1  0.178700  -0.174400  0.312800  1
  H  H446  1  0.167600  -0.119000  0.049000  1
  H  H447  1  0.153800  -0.213600  0.029600  1
  H  H448  1  0.034400  -0.152700  -0.016300  1
  H  H449  1  0.027700  -0.095500  0.059100  1
  H  H450  1  -0.157900  -0.449100  0.165500  1
  H  H451  1  -0.228800  -0.414100  0.220500  1
  H  H452  1  -0.156800  -0.440300  0.330300  1
  H  H453  1  -0.103900  -0.500200  0.276700  1
  H  H454  1  0.102000  -0.243200  0.497000  1
  H  H455  1  0.061000  -0.156900  0.515500  1
  H  H456  1  0.154200  -0.091400  0.444300  1
  H  H457  1  0.204200  -0.175000  0.440800  1
  H  H458  1  -0.095800  -0.031600  0.383600  1
  H  H459  1  -0.104500  -0.025000  0.097200  1
  H  H460  1  -0.284700  0.182600  0.392900  1
  H  H461  1  -0.290300  0.191500  0.107700  1
  H  H462  1  -0.583900  0.327200  0.262600  1
  H  H463  1  -0.478100  0.438800  0.159900  1
  H  H464  1  -0.455000  0.455800  0.333900  1
  H  H465  1  -0.508900  0.213100  0.167200  1
  H  H466  1  -0.602100  0.242900  0.164700  1
  H  H467  1  -0.498000  0.210900  0.354200  1
  H  H468  1  -0.569900  0.270600  0.381400  1
  H  H469  1  -0.307200  0.403500  0.151200  1
  H  H470  1  -0.347900  0.488400  0.176100  1
  H  H471  1  -0.505200  0.335700  0.075900  1
  H  H472  1  -0.417100  0.295000  0.087500  1
  H  H473  1  -0.405100  0.315900  0.419500  1
  H  H474  1  -0.482900  0.372600  0.435300  1
  H  H475  1  -0.288900  0.400100  0.334200  1
  H  H476  1  -0.321600  0.483800  0.297700  1
  H  H477  1  -0.629400  0.116600  0.215300  1
  H  H478  1  -0.538600  0.106400  0.248500  1
  H  H479  1  -0.611100  0.126700  0.357600  1
  H  H480  1  -0.667900  0.194200  0.317000  1
  H  H481  1  -0.386300  0.518400  0.051800  1
  H  H482  1  -0.306000  0.466500  0.032700  1
  H  H483  1  -0.379300  0.366900  -0.017400  1
  H  H484  1  -0.457300  0.425400  -0.011300  1
  H  H485  1  -0.408300  0.458800  0.507700  1
  H  H486  1  -0.335600  0.393900  0.504000  1
  H  H487  1  -0.268400  0.488000  0.436600  1
  H  H488  1  -0.350300  0.537800  0.418100  1
  Si  Si489  1  0.003530  0.275990  0.250480  1.0
  Si  Si490  1  0.440080  0.840110  0.246890  1
  Si  Si491  1  0.496470  0.724010  -0.249520  1.0
  Si  Si492  1  0.059920  0.159890  -0.253110  1
  Si  Si493  1  -0.496470  1.224010  0.749520  1.0
  Si  Si494  1  -0.059920  0.659890  0.753110  1
  Si  Si495  1  -0.003530  -0.224010  0.249520  1.0
  Si  Si496  1  -0.440080  0.340110  0.253110  1
