# generated using pymatgen
data_SiH6C29S3
_symmetry_space_group_name_H-M   'P 1'
_cell_length_a   9.76500000
_cell_length_b   10.19000000
_cell_length_c   14.85800000
_cell_angle_alpha   93.36000000
_cell_angle_beta   97.76000000
_cell_angle_gamma   110.32000000
_symmetry_Int_Tables_number   1
_chemical_formula_structural   SiH6C29S3
_chemical_formula_sum   'Si2 H12 C58 S6'
_cell_volume   1364.86336730
_cell_formula_units_Z   2
loop_
 _symmetry_equiv_pos_site_id
 _symmetry_equiv_pos_as_xyz
  1  'x, y, z'
loop_
 _atom_site_type_symbol
 _atom_site_label
 _atom_site_symmetry_multiplicity
 _atom_site_fract_x
 _atom_site_fract_y
 _atom_site_fract_z
 _atom_site_occupancy
  C  C1  1  0.766600  0.076700  0.746300  1
  C  C2  1  0.812200  -0.089000  0.900300  1
  C  C3  1  1.077600  0.173400  0.852500  1
  C  C4  1  0.838100  0.216700  0.942600  1
  C  C5  1  0.689800  0.058400  0.672800  1
  C  C6  1  0.779300  -0.218800  0.823900  1
  C  C7  1  1.143600  0.331900  0.852600  1
  C  C8  1  0.678800  0.165700  0.965900  1
  C  C9  1  0.596700  0.031400  0.586000  1
  C  C10  1  0.718000  -0.347500  0.872500  1
  C  C11  1  0.898700  -0.212300  0.777800  1
  C  C12  1  1.319000  0.360500  0.854600  1
  C  C13  1  1.082400  0.384300  0.761400  1
  C  C14  1  0.653900  0.214800  1.057500  1
  C  C15  1  0.573900  0.205200  0.899400  1
  C  C16  1  0.517800  0.118000  0.558600  1
  C  C17  1  0.579200  -0.084800  0.525800  1
  C  C18  1  0.420800  0.084800  0.474200  1
  C  C19  1  0.482200  -0.118000  0.441400  1
  C  C20  1  0.636500  -0.198700  0.525200  1
  C  C21  1  0.403300  -0.031400  0.414000  1
  C  C22  1  0.363500  0.198700  0.474800  1
  C  C23  1  0.407100  0.295400  0.545800  1
  C  C24  1  0.592900  -0.295400  0.454200  1
  C  C25  1  0.310200  -0.058400  0.327200  1
  C  C26  1  0.364200  0.415800  0.563000  1
  C  C27  1  0.635800  -0.415800  0.437000  1
  C  C28  1  0.233400  -0.076700  0.253700  1
  C  C29  1  0.258700  0.454000  0.511400  1
  C  C30  1  0.741300  -0.454000  0.488600  1
  C  C31  1  0.250000  0.581000  0.550100  1
  C  C32  1  0.348000  0.639900  0.633000  1
  C  C33  1  0.750000  -0.581000  0.449900  1
  C  C34  1  0.652000  -0.639900  0.367000  1
  C  C35  1  0.187800  0.089000  0.099700  1
  C  C36  1  -0.077600  -0.173400  0.147500  1
  C  C37  1  0.161900  -0.216700  0.057400  1
  C  C38  1  0.154000  0.648400  0.513500  1
  C  C39  1  0.353000  0.761300  0.681900  1
  C  C40  1  0.846000  -0.648400  0.486500  1
  C  C41  1  0.647000  -0.761300  0.318100  1
  C  C42  1  0.220700  0.218800  0.176100  1
  C  C43  1  -0.143600  -0.331900  0.147400  1
  C  C44  1  0.321200  -0.165700  0.034100  1
  C  C45  1  0.163900  0.771800  0.563100  1
  C  C46  1  0.262300  0.830600  0.646100  1
  C  C47  1  0.836100  -0.771800  0.436900  1
  C  C48  1  0.737700  -0.830600  0.353900  1
  C  C49  1  0.282000  0.347500  0.127500  1
  C  C50  1  0.101300  0.212300  0.222200  1
  C  C51  1  -0.319000  -0.360500  0.145400  1
  C  C52  1  -0.082400  -0.384300  0.238600  1
  C  C53  1  0.346100  -0.214800  -0.057500  1
  C  C54  1  0.426100  -0.205200  0.100600  1
  C  C55  1  0.254500  0.963000  0.681300  1
  C  C56  1  0.745500  -0.963000  0.318700  1
  C  C57  1  0.147000  0.994000  0.628300  1
  C  C58  1  0.853000  -0.994000  0.371700  1
  H  H59  1  0.704900  -0.203300  0.575700  1
  H  H60  1  0.295100  0.203300  0.424300  1
  H  H61  1  0.198800  0.401400  0.456200  1
  H  H62  1  0.801200  -0.401400  0.543800  1
  H  H63  1  0.087300  0.611300  0.457700  1
  H  H64  1  0.417100  0.796600  0.738900  1
  H  H65  1  0.912700  -0.611300  0.542300  1
  H  H66  1  0.582900  -0.796600  0.261100  1
  H  H67  1  0.316300  1.020600  0.734400  1
  H  H68  1  0.683700  -1.020600  0.265600  1
  H  H69  1  0.121100  1.073600  0.643500  1
  H  H70  1  0.878900  -1.073600  0.356500  1
  S  S71  1  0.538800  0.265960  0.628800  1
  S  S72  1  0.461200  -0.265960  0.371200  1
  S  S73  1  0.453000  0.534900  0.661380  1
  S  S74  1  0.547000  -0.534900  0.338620  1
  S  S75  1  0.063900  0.879700  0.532740  1
  S  S76  1  0.936100  -0.879700  0.467260  1
  Si  Si77  1  0.878000  0.090250  0.858130  1.0
  Si  Si78  1  0.122000  -0.090250  0.141870  1
