# generated using pymatgen
data_SiH26C23N
_symmetry_space_group_name_H-M   'P 1'
_cell_length_a   17.58500000
_cell_length_b   7.25920000
_cell_length_c   15.31460000
_cell_angle_alpha   90.00000000
_cell_angle_beta   90.62700000
_cell_angle_gamma   90.00000000
_symmetry_Int_Tables_number   1
_chemical_formula_structural   SiH26C23N
_chemical_formula_sum   'Si4 H104 C92 N4'
_cell_volume   1954.83806824
_cell_formula_units_Z   4
loop_
 _symmetry_equiv_pos_site_id
 _symmetry_equiv_pos_as_xyz
  1  'x, y, z'
loop_
 _atom_site_type_symbol
 _atom_site_label
 _atom_site_symmetry_multiplicity
 _atom_site_fract_x
 _atom_site_fract_y
 _atom_site_fract_z
 _atom_site_occupancy
  C  C1  1  0.726700  0.569500  0.536200  1
  C  C2  1  0.833000  0.855000  0.605000  1
  C  C3  1  0.888200  0.589500  0.473500  1
  C  C4  1  0.848500  0.439900  0.656600  1
  C  C5  1  0.659900  0.547400  0.523000  1
  C  C6  1  0.779600  0.984200  0.549800  1
  C  C7  1  0.917500  0.925300  0.593400  1
  C  C8  1  0.871400  0.739300  0.405400  1
  C  C9  1  0.880300  0.397800  0.434200  1
  C  C10  1  0.929700  0.452300  0.693300  1
  C  C11  1  0.790200  0.443000  0.729700  1
  C  C12  1  0.579610  0.523900  0.510110  1
  C  C13  1  0.551720  0.365500  0.467170  1
  C  C14  1  0.529500  0.660200  0.542800  1
  C  C15  1  0.600500  0.229700  0.433900  1
  C  C16  1  0.470500  0.339800  0.457200  1
  C  C17  1  0.448280  0.634500  0.532830  1
  C  C18  1  0.556480  0.820700  0.583200  1
  C  C19  1  0.573040  0.071500  0.394300  1
  C  C20  1  0.420390  0.476100  0.489890  1
  C  C21  1  0.443520  0.179300  0.416800  1
  C  C22  1  0.399500  0.770300  0.566100  1
  C  C23  1  0.508060  0.956700  0.613720  1
  C  C24  1  0.622400  -0.068400  0.361600  1
  C  C25  1  0.491940  0.043300  0.386280  1
  C  C26  1  0.340100  0.452600  0.477000  1
  C  C27  1  0.426960  0.928500  0.605700  1
  C  C28  1  0.535400  1.123000  0.652600  1
  C  C29  1  0.593800  -0.224100  0.324900  1
  C  C30  1  0.464600  -0.123000  0.347400  1
  C  C31  1  0.273300  0.430500  0.463800  1
  C  C32  1  0.377600  1.068400  0.638400  1
  C  C33  1  0.486500  1.253300  0.682500  1
  C  C34  1  0.513500  -0.253300  0.317500  1
  C  C35  1  0.646600  -0.356800  0.296100  1
  C  C36  1  0.406200  1.224100  0.675100  1
  C  C37  1  0.167000  0.145000  0.395000  1
  C  C38  1  0.111800  0.410500  0.526500  1
  C  C39  1  0.151500  0.560100  0.343400  1
  C  C40  1  0.353400  1.356800  0.703900  1
  C  C41  1  0.220400  0.015800  0.450200  1
  C  C42  1  0.082500  0.074700  0.406600  1
  C  C43  1  0.128600  0.260700  0.594600  1
  C  C44  1  0.119700  0.602200  0.565800  1
  C  C45  1  0.070300  0.547700  0.306700  1
  C  C46  1  0.209800  0.557000  0.270300  1
  C  C47  1  0.273300  0.069500  0.963800  1
  C  C48  1  0.167000  0.355000  0.895000  1
  C  C49  1  0.111800  0.089500  1.026500  1
  C  C50  1  0.151500  -0.060100  0.843400  1
  C  C51  1  0.340100  0.047400  0.977000  1
  C  C52  1  0.220400  0.484200  0.950200  1
  C  C53  1  0.082500  0.425300  0.906600  1
  C  C54  1  0.128600  0.239300  1.094600  1
  C  C55  1  0.119700  -0.102200  1.065800  1
  C  C56  1  0.070300  -0.047700  0.806700  1
  C  C57  1  0.209800  -0.057000  0.770300  1
  C  C58  1  0.420390  0.023900  0.989890  1
  C  C59  1  0.448280  -0.134500  1.032830  1
  C  C60  1  0.470500  0.160200  0.957200  1
  C  C61  1  0.399500  -0.270300  1.066100  1
  C  C62  1  0.529500  -0.160200  1.042800  1
  C  C63  1  0.551720  0.134500  0.967170  1
  C  C64  1  0.443520  0.320700  0.916800  1
  C  C65  1  0.426960  -0.428500  1.105700  1
  C  C66  1  0.579610  -0.023900  1.010110  1
  C  C67  1  0.556480  -0.320700  1.083200  1
  C  C68  1  0.600500  0.270300  0.933900  1
  C  C69  1  0.491940  0.456700  0.886280  1
  C  C70  1  0.377600  -0.568400  1.138400  1
  C  C71  1  0.508060  -0.456700  1.113720  1
  C  C72  1  0.659900  -0.047400  1.023000  1
  C  C73  1  0.573040  0.428500  0.894300  1
  C  C74  1  0.464600  0.623000  0.847400  1
  C  C75  1  0.406200  -0.724100  1.175100  1
  C  C76  1  0.535400  -0.623000  1.152600  1
  C  C77  1  0.726700  -0.069500  1.036200  1
  C  C78  1  0.622400  0.568400  0.861600  1
  C  C79  1  0.513500  0.753300  0.817500  1
  C  C80  1  0.486500  -0.753300  1.182500  1
  C  C81  1  0.353400  -0.856800  1.203900  1
  C  C82  1  0.593800  0.724100  0.824900  1
  C  C83  1  0.833000  -0.355000  1.105000  1
  C  C84  1  0.888200  -0.089500  0.973500  1
  C  C85  1  0.848500  0.060100  1.156600  1
  C  C86  1  0.646600  0.856800  0.796100  1
  C  C87  1  0.779600  -0.484200  1.049800  1
  C  C88  1  0.917500  -0.425300  1.093400  1
  C  C89  1  0.871400  -0.239300  0.905400  1
  C  C90  1  0.880300  0.102200  0.934200  1
  C  C91  1  0.929700  0.047700  1.193300  1
  C  C92  1  0.790200  0.057000  1.229700  1
  H  H93  1  0.819400  0.862900  0.668200  1
  H  H94  1  0.942100  0.605000  0.494000  1
  H  H95  1  0.844100  0.315600  0.628800  1
  H  H96  1  0.726500  0.949500  0.559500  1
  H  H97  1  0.791300  0.971000  0.487700  1
  H  H98  1  0.787400  1.112500  0.567700  1
  H  H99  1  0.951900  0.852200  0.630300  1
  H  H100  1  0.920700  1.055200  0.610500  1
  H  H101  1  0.932000  0.912300  0.532100  1
  H  H102  1  0.876700  0.860900  0.432500  1
  H  H103  1  0.819300  0.724400  0.382900  1
  H  H104  1  0.907300  0.728200  0.357200  1
  H  H105  1  0.891100  0.305100  0.479200  1
  H  H106  1  0.916400  0.383800  0.386400  1
  H  H107  1  0.828400  0.381000  0.411800  1
  H  H108  1  0.934800  0.563600  0.729100  1
  H  H109  1  0.965700  0.457900  0.644900  1
  H  H110  1  0.940600  0.343600  0.729200  1
  H  H111  1  0.801200  0.343100  0.771100  1
  H  H112  1  0.739100  0.426300  0.704800  1
  H  H113  1  0.792900  0.561500  0.760200  1
  H  H114  1  0.653900  0.247100  0.438800  1
  H  H115  1  0.609800  0.837100  0.590000  1
  H  H116  1  0.390200  0.162900  0.410000  1
  H  H117  1  0.346100  0.752900  0.561200  1
  H  H118  1  0.675900  -0.052100  0.365600  1
  H  H119  1  0.588700  1.143000  0.657700  1
  H  H120  1  0.411300  -0.143000  0.342300  1
  H  H121  1  0.324100  1.052100  0.634400  1
  H  H122  1  0.505600  1.363300  0.708100  1
  H  H123  1  0.494400  -0.363300  0.291900  1
  H  H124  1  0.180600  0.137100  0.331800  1
  H  H125  1  0.057900  0.395000  0.506000  1
  H  H126  1  0.155900  0.684400  0.371200  1
  H  H127  1  0.273500  0.050500  0.440500  1
  H  H128  1  0.208700  0.029000  0.512300  1
  H  H129  1  0.212600  -0.112500  0.432300  1
  H  H130  1  0.048100  0.147800  0.369700  1
  H  H131  1  0.079300  -0.055200  0.389500  1
  H  H132  1  0.068000  0.087700  0.467900  1
  H  H133  1  0.123300  0.139100  0.567500  1
  H  H134  1  0.180700  0.275600  0.617100  1
  H  H135  1  0.092700  0.271800  0.642800  1
  H  H136  1  0.108900  0.694900  0.520800  1
  H  H137  1  0.083600  0.616200  0.613600  1
  H  H138  1  0.171600  0.619000  0.588200  1
  H  H139  1  0.065200  0.436400  0.270900  1
  H  H140  1  0.034300  0.542100  0.355100  1
  H  H141  1  0.059400  0.656400  0.270800  1
  H  H142  1  0.198800  0.656900  0.228900  1
  H  H143  1  0.260900  0.573700  0.295200  1
  H  H144  1  0.207100  0.438500  0.239800  1
  H  H145  1  0.180600  0.362900  0.831800  1
  H  H146  1  0.057900  0.105000  1.006000  1
  H  H147  1  0.155900  -0.184400  0.871200  1
  H  H148  1  0.273500  0.449500  0.940500  1
  H  H149  1  0.208700  0.471000  1.012300  1
  H  H150  1  0.212600  0.612500  0.932300  1
  H  H151  1  0.048100  0.352200  0.869700  1
  H  H152  1  0.079300  0.555200  0.889500  1
  H  H153  1  0.068000  0.412300  0.967900  1
  H  H154  1  0.123300  0.360900  1.067500  1
  H  H155  1  0.180700  0.224400  1.117100  1
  H  H156  1  0.092700  0.228200  1.142800  1
  H  H157  1  0.108900  -0.194900  1.020800  1
  H  H158  1  0.083600  -0.116200  1.113600  1
  H  H159  1  0.171600  -0.119000  1.088200  1
  H  H160  1  0.065200  0.063600  0.770900  1
  H  H161  1  0.034300  -0.042100  0.855100  1
  H  H162  1  0.059400  -0.156400  0.770800  1
  H  H163  1  0.198800  -0.156900  0.728900  1
  H  H164  1  0.260900  -0.073700  0.795200  1
  H  H165  1  0.207100  0.061500  0.739800  1
  H  H166  1  0.346100  -0.252900  1.061200  1
  H  H167  1  0.390200  0.337100  0.910000  1
  H  H168  1  0.609800  -0.337100  1.090000  1
  H  H169  1  0.653900  0.252900  0.938800  1
  H  H170  1  0.324100  -0.552100  1.134400  1
  H  H171  1  0.411300  0.643000  0.842300  1
  H  H172  1  0.588700  -0.643000  1.157700  1
  H  H173  1  0.675900  0.552100  0.865600  1
  H  H174  1  0.494400  0.863300  0.791900  1
  H  H175  1  0.505600  -0.863300  1.208100  1
  H  H176  1  0.819400  -0.362900  1.168200  1
  H  H177  1  0.942100  -0.105000  0.994000  1
  H  H178  1  0.844100  0.184400  1.128800  1
  H  H179  1  0.726500  -0.449500  1.059500  1
  H  H180  1  0.791300  -0.471000  0.987700  1
  H  H181  1  0.787400  -0.612500  1.067700  1
  H  H182  1  0.951900  -0.352200  1.130300  1
  H  H183  1  0.920700  -0.555200  1.110500  1
  H  H184  1  0.932000  -0.412300  1.032100  1
  H  H185  1  0.876700  -0.360900  0.932500  1
  H  H186  1  0.819300  -0.224400  0.882900  1
  H  H187  1  0.907300  -0.228200  0.857200  1
  H  H188  1  0.891100  0.194900  0.979200  1
  H  H189  1  0.916400  0.116200  0.886400  1
  H  H190  1  0.828400  0.119000  0.911800  1
  H  H191  1  0.934800  -0.063600  1.229100  1
  H  H192  1  0.965700  0.042100  1.144900  1
  H  H193  1  0.940600  0.156400  1.229200  1
  H  H194  1  0.801200  0.156900  1.271100  1
  H  H195  1  0.739100  0.073700  1.204800  1
  H  H196  1  0.792900  -0.061500  1.260200  1
  N  N197  1  0.689000  -0.467000  0.272600  1
  N  N198  1  0.311000  1.467000  0.727400  1
  N  N199  1  0.311000  -0.967000  1.227400  1
  N  N200  1  0.689000  0.967000  0.772600  1
  Si  Si201  1  0.826720  0.611250  0.568150  1.0
  Si  Si202  1  0.173280  0.388750  0.431850  1
  Si  Si203  1  0.173280  0.111250  0.931850  1.0
  Si  Si204  1  0.826720  -0.111250  1.068150  1
