# generated using pymatgen
data_SiH21(C10O)2
_symmetry_space_group_name_H-M   'P 1'
_cell_length_a   8.07800000
_cell_length_b   14.58960000
_cell_length_c   16.04010000
_cell_angle_alpha   69.72100000
_cell_angle_beta   79.34700000
_cell_angle_gamma   88.95700000
_symmetry_Int_Tables_number   1
_chemical_formula_structural   SiH21(C10O)2
_chemical_formula_sum   'Si4 H84 C80 O8'
_cell_volume   1740.50740693
_cell_formula_units_Z   4
loop_
 _symmetry_equiv_pos_site_id
 _symmetry_equiv_pos_as_xyz
  1  'x, y, z'
loop_
 _atom_site_type_symbol
 _atom_site_label
 _atom_site_symmetry_multiplicity
 _atom_site_fract_x
 _atom_site_fract_y
 _atom_site_fract_z
 _atom_site_occupancy
  C  C1  1  0.321600  0.930480  0.267660  1
  C  C2  1  0.189100  0.793510  0.458340  1
  C  C3  1  0.373400  0.988150  0.422310  1
  C  C4  1  0.022600  0.986800  0.372480  1
  C  C5  1  0.379700  0.947840  0.188650  1
  C  C6  1  0.121400  0.781300  0.557310  1
  C  C7  1  0.440200  1.088770  0.355700  1
  C  C8  1  -0.104600  0.939200  0.338300  1
  C  C9  1  0.440900  0.973070  0.094010  1
  C  C10  1  0.337100  1.025260  0.033570  1
  C  C11  1  0.603000  0.946770  0.062220  1
  C  C12  1  0.174900  1.050990  0.064450  1
  C  C13  1  0.397000  1.053230  -0.062220  1
  C  C14  1  0.662900  0.974740  -0.033570  1
  C  C15  1  0.707300  0.892650  0.120970  1
  C  C16  1  0.072900  1.103260  0.006380  1
  C  C17  1  0.559100  1.026930  -0.094010  1
  C  C18  1  0.292700  1.107350  -0.120970  1
  C  C19  1  0.825100  0.949010  -0.064450  1
  C  C20  1  0.864800  0.865970  0.090240  1
  C  C21  1  -0.093300  1.126480  0.040110  1
  C  C22  1  0.135200  1.134030  -0.090240  1
  C  C23  1  0.620300  1.052160  -0.188650  1
  C  C24  1  0.927100  0.896740  -0.006380  1
  C  C25  1  0.968300  0.809820  0.151290  1
  C  C26  1  -0.184900  1.177090  -0.020590  1
  C  C27  1  0.031700  1.190180  -0.151290  1
  C  C28  1  0.678400  1.069520  -0.267660  1
  C  C29  1  1.093300  0.873520  -0.040110  1
  C  C30  1  1.122600  0.790670  0.115190  1
  C  C31  1  -0.122600  1.209330  -0.115190  1
  C  C32  1  1.184900  0.822910  0.020590  1
  C  C33  1  -0.384800  1.260750  -0.091560  1
  C  C34  1  0.810900  1.206490  -0.458340  1
  C  C35  1  0.626600  1.011850  -0.422310  1
  C  C36  1  0.977400  1.013200  -0.372480  1
  C  C37  1  1.384800  0.739250  0.091560  1
  C  C38  1  0.878600  1.218700  -0.557310  1
  C  C39  1  0.559800  0.911230  -0.355700  1
  C  C40  1  1.104600  1.060800  -0.338300  1
  C  C41  1  0.344100  0.484260  0.258170  1
  C  C42  1  0.256900  0.373730  0.457610  1
  C  C43  1  0.458400  0.568760  0.386290  1
  C  C44  1  0.089000  0.567670  0.368330  1
  C  C45  1  0.385300  0.481660  0.183130  1
  C  C46  1  0.398600  0.306710  0.444690  1
  C  C47  1  0.521400  0.664790  0.309670  1
  C  C48  1  -0.056100  0.524100  0.343500  1
  C  C49  1  0.440000  0.487290  0.091820  1
  C  C50  1  0.338200  0.531960  0.027370  1
  C  C51  1  0.599800  0.453790  0.066090  1
  C  C52  1  0.176900  0.563410  0.051940  1
  C  C53  1  0.400200  0.546210  -0.066090  1
  C  C54  1  0.661800  0.468040  -0.027370  1
  C  C55  1  0.699900  0.405890  0.129680  1
  C  C56  1  0.078700  0.609450  -0.010550  1
  C  C57  1  0.560000  0.512710  -0.091820  1
  C  C58  1  0.300100  0.594110  -0.129680  1
  C  C59  1  0.823100  0.436590  -0.051940  1
  C  C60  1  0.855700  0.372660  0.105320  1
  C  C61  1  -0.085700  0.640200  0.016240  1
  C  C62  1  0.144300  0.627340  -0.105320  1
  C  C63  1  0.614700  0.518340  -0.183130  1
  C  C64  1  0.921300  0.390550  0.010550  1
  C  C65  1  0.954200  0.322100  0.171720  1
  C  C66  1  -0.171600  0.685840  -0.048910  1
  C  C67  1  0.045800  0.677900  -0.171720  1
  C  C68  1  0.655900  0.515740  -0.258170  1
  C  C69  1  1.085700  0.359800  -0.016240  1
  C  C70  1  1.106200  0.294270  0.142000  1
  C  C71  1  -0.106200  0.705730  -0.142000  1
  C  C72  1  1.171600  0.314160  0.048910  1
  C  C73  1  -0.359800  0.769500  -0.129140  1
  C  C74  1  0.743100  0.626270  -0.457610  1
  C  C75  1  0.541600  0.431240  -0.386290  1
  C  C76  1  0.911000  0.432330  -0.368330  1
  C  C77  1  1.359800  0.230500  0.129140  1
  C  C78  1  0.601400  0.693290  -0.444690  1
  C  C79  1  0.478600  0.335210  -0.309670  1
  C  C80  1  1.056100  0.475900  -0.343500  1
  H  H81  1  0.108000  0.760700  0.437100  1
  H  H82  1  0.296900  0.760500  0.454300  1
  H  H83  1  0.315200  0.995300  0.479600  1
  H  H84  1  0.470300  0.946700  0.435800  1
  H  H85  1  -0.030100  0.988700  0.432700  1
  H  H86  1  0.048100  1.055300  0.330800  1
  H  H87  1  0.203500  0.810700  0.579800  1
  H  H88  1  0.102600  0.711500  0.593600  1
  H  H89  1  0.014600  0.813800  0.562000  1
  H  H90  1  0.498500  1.082800  0.298700  1
  H  H91  1  0.519100  1.116600  0.381200  1
  H  H92  1  0.345900  1.131700  0.344300  1
  H  H93  1  -0.054000  0.936900  0.278600  1
  H  H94  1  -0.205500  0.977500  0.333500  1
  H  H95  1  -0.135800  0.872500  0.380800  1
  H  H96  1  0.134100  1.031600  0.127800  1
  H  H97  1  0.667600  0.873700  0.184400  1
  H  H98  1  0.332400  1.126300  -0.184400  1
  H  H99  1  0.865900  0.968400  -0.127800  1
  H  H100  1  -0.136900  1.106700  0.103300  1
  H  H101  1  0.929200  0.787000  0.215000  1
  H  H102  1  0.070800  1.213000  -0.215000  1
  H  H103  1  1.136900  0.893300  -0.103300  1
  H  H104  1  -0.486500  1.231200  -0.100500  1
  H  H105  1  -0.407100  1.328900  -0.095400  1
  H  H106  1  0.892000  1.239300  -0.437100  1
  H  H107  1  0.703100  1.239500  -0.454300  1
  H  H108  1  0.684800  1.004700  -0.479600  1
  H  H109  1  0.529700  1.053300  -0.435800  1
  H  H110  1  1.030100  1.011300  -0.432700  1
  H  H111  1  0.951900  0.944700  -0.330800  1
  H  H112  1  1.486500  0.768800  0.100500  1
  H  H113  1  1.407100  0.671100  0.095400  1
  H  H114  1  0.796500  1.189300  -0.579800  1
  H  H115  1  0.897400  1.288500  -0.593600  1
  H  H116  1  0.985400  1.186200  -0.562000  1
  H  H117  1  0.501500  0.917200  -0.298700  1
  H  H118  1  0.480900  0.883400  -0.381200  1
  H  H119  1  0.654100  0.868300  -0.344300  1
  H  H120  1  1.054000  1.063100  -0.278600  1
  H  H121  1  1.205500  1.022500  -0.333500  1
  H  H122  1  1.135800  1.127500  -0.380800  1
  H  H123  1  0.249100  0.380100  0.517700  1
  H  H124  1  0.148900  0.343000  0.457300  1
  H  H125  1  0.418900  0.583300  0.442400  1
  H  H126  1  0.555100  0.526300  0.396200  1
  H  H127  1  0.050900  0.571900  0.429200  1
  H  H128  1  0.116200  0.635200  0.324900  1
  H  H129  1  0.400900  0.295200  0.387800  1
  H  H130  1  0.379300  0.244200  0.495300  1
  H  H131  1  0.506700  0.337600  0.442600  1
  H  H132  1  0.571500  0.651200  0.254900  1
  H  H133  1  0.606600  0.697600  0.327300  1
  H  H134  1  0.426700  0.707200  0.297600  1
  H  H135  1  -0.016300  0.511500  0.287100  1
  H  H136  1  -0.146700  0.570100  0.335200  1
  H  H137  1  -0.098900  0.462600  0.392100  1
  H  H138  1  0.134100  0.552400  0.114100  1
  H  H139  1  0.658700  0.396000  0.191700  1
  H  H140  1  0.341300  0.604000  -0.191700  1
  H  H141  1  0.865900  0.447600  -0.114100  1
  H  H142  1  -0.132100  0.628600  0.078100  1
  H  H143  1  0.913400  0.308800  0.234400  1
  H  H144  1  0.086600  0.691200  -0.234400  1
  H  H145  1  1.132100  0.371400  -0.078100  1
  H  H146  1  -0.368800  0.840400  -0.140400  1
  H  H147  1  -0.466700  0.743600  -0.136400  1
  H  H148  1  0.750900  0.619900  -0.517700  1
  H  H149  1  0.851100  0.657000  -0.457300  1
  H  H150  1  0.581100  0.416700  -0.442400  1
  H  H151  1  0.444900  0.473700  -0.396200  1
  H  H152  1  0.949100  0.428100  -0.429200  1
  H  H153  1  0.883800  0.364800  -0.324900  1
  H  H154  1  1.368800  0.159600  0.140400  1
  H  H155  1  1.466700  0.256400  0.136400  1
  H  H156  1  0.599100  0.704800  -0.387800  1
  H  H157  1  0.620700  0.755800  -0.495300  1
  H  H158  1  0.493300  0.662400  -0.442600  1
  H  H159  1  0.428500  0.348800  -0.254900  1
  H  H160  1  0.393400  0.302400  -0.327300  1
  H  H161  1  0.573300  0.292800  -0.297600  1
  H  H162  1  1.016300  0.488500  -0.287100  1
  H  H163  1  1.146700  0.429900  -0.335200  1
  H  H164  1  1.098900  0.537400  -0.392100  1
  O  O165  1  -0.345650  1.205670  -0.005230  1
  O  O166  1  1.243030  0.740580  0.159140  1
  O  O167  1  -0.243030  1.259420  -0.159140  1
  O  O168  1  1.345650  0.794330  0.005230  1
  O  O169  1  -0.329510  0.720060  -0.040060  1
  O  O170  1  1.221800  0.246510  0.191340  1
  O  O171  1  -0.221800  0.753490  -0.191340  1
  O  O172  1  1.329510  0.279940  0.040060  1
  Si  Si173  1  0.224660  0.923780  0.382130  1.0
  Si  Si174  1  0.775340  1.076220  -0.382130  1
  Si  Si175  1  0.285410  0.498460  0.369140  1.0
  Si  Si176  1  0.714590  0.501540  -0.369140  1
