# generated using pymatgen
data_SiH18C18SF
_symmetry_space_group_name_H-M   'P 1'
_cell_length_a   7.23120000
_cell_length_b   32.88940000
_cell_length_c   7.18730000
_cell_angle_alpha   90.00000000
_cell_angle_beta   107.39800000
_cell_angle_gamma   90.00000000
_symmetry_Int_Tables_number   1
_chemical_formula_structural   SiH18C18SF
_chemical_formula_sum   'Si4 H72 C72 S4 F4'
_cell_volume   1631.15268139
_cell_formula_units_Z   4
loop_
 _symmetry_equiv_pos_site_id
 _symmetry_equiv_pos_as_xyz
  1  'x, y, z'
loop_
 _atom_site_type_symbol
 _atom_site_label
 _atom_site_symmetry_multiplicity
 _atom_site_fract_x
 _atom_site_fract_y
 _atom_site_fract_z
 _atom_site_occupancy
  C  C1  1  0.462900  0.389740  0.736000  1
  C  C2  1  0.684000  0.312260  0.807600  1
  C  C3  1  0.499200  0.344610  1.108800  1
  C  C4  1  0.239000  0.314100  0.735000  1
  C  C5  1  0.470300  0.422770  0.666200  1
  C  C6  1  0.728100  0.271380  0.914300  1
  C  C7  1  0.664600  0.370420  1.223400  1
  C  C8  1  0.208000  0.276500  0.822000  1
  C  C9  1  0.114000  0.324400  0.574000  1
  C  C10  1  0.483300  0.461830  0.582800  1
  C  C11  1  0.388500  0.468280  0.382400  1
  C  C12  1  0.591300  0.492880  0.702400  1
  C  C13  1  0.275200  0.437530  0.263300  1
  C  C14  1  0.408700  0.507120  0.297600  1
  C  C15  1  0.611500  0.531720  0.617600  1
  C  C16  1  0.680200  0.486990  0.905100  1
  C  C17  1  0.189500  0.444620  0.069800  1
  C  C18  1  0.516700  0.538170  0.417200  1
  C  C19  1  0.319800  0.513010  0.094900  1
  C  C20  1  0.724800  0.562470  0.736700  1
  C  C21  1  0.786400  0.517340  1.016600  1
  C  C22  1  0.213600  0.482660  -0.016600  1
  C  C23  1  0.529700  0.577230  0.333800  1
  C  C24  1  0.810500  0.555380  0.930200  1
  C  C25  1  0.887000  0.516900  1.221500  1
  C  C26  1  0.113000  0.483100  -0.221500  1
  C  C27  1  0.023800  0.447330  -0.281600  1
  C  C28  1  0.537100  0.610260  0.264000  1
  C  C29  1  0.976200  0.552670  1.281600  1
  C  C30  1  0.316000  0.687740  0.192400  1
  C  C31  1  0.500800  0.655390  -0.108800  1
  C  C32  1  0.761000  0.685900  0.265000  1
  C  C33  1  0.271900  0.728620  0.085700  1
  C  C34  1  0.335400  0.629580  -0.223400  1
  C  C35  1  0.792000  0.723500  0.178000  1
  C  C36  1  0.886000  0.675600  0.426000  1
  C  C37  1  0.537100  0.889740  -0.236000  1
  C  C38  1  0.316000  0.812260  -0.307600  1
  C  C39  1  0.500800  0.844610  -0.608800  1
  C  C40  1  0.761000  0.814100  -0.235000  1
  C  C41  1  0.529700  0.922770  -0.166200  1
  C  C42  1  0.271900  0.771380  -0.414300  1
  C  C43  1  0.335400  0.870420  -0.723400  1
  C  C44  1  0.792000  0.776500  -0.322000  1
  C  C45  1  0.886000  0.824400  -0.074000  1
  C  C46  1  0.516700  0.961830  -0.082800  1
  C  C47  1  0.611500  0.968280  0.117600  1
  C  C48  1  0.408700  0.992880  -0.202400  1
  C  C49  1  0.724800  0.937530  0.236700  1
  C  C50  1  0.591300  1.007120  0.202400  1
  C  C51  1  0.388500  1.031720  -0.117600  1
  C  C52  1  0.319800  0.986990  -0.405100  1
  C  C53  1  0.810500  0.944620  0.430200  1
  C  C54  1  0.483300  1.038170  0.082800  1
  C  C55  1  0.680200  1.013010  0.405100  1
  C  C56  1  0.275200  1.062470  -0.236700  1
  C  C57  1  0.213600  1.017340  -0.516600  1
  C  C58  1  0.786400  0.982660  0.516600  1
  C  C59  1  0.470300  1.077230  0.166200  1
  C  C60  1  0.189500  1.055380  -0.430200  1
  C  C61  1  0.113000  1.016900  -0.721500  1
  C  C62  1  0.887000  0.983100  0.721500  1
  C  C63  1  0.976200  0.947330  0.781600  1
  C  C64  1  0.462900  1.110260  0.236000  1
  C  C65  1  0.023800  1.052670  -0.781600  1
  C  C66  1  0.684000  1.187740  0.307600  1
  C  C67  1  0.499200  1.155390  0.608800  1
  C  C68  1  0.239000  1.185900  0.235000  1
  C  C69  1  0.728100  1.228620  0.414300  1
  C  C70  1  0.664600  1.129580  0.723400  1
  C  C71  1  0.208000  1.223500  0.322000  1
  C  C72  1  0.114000  1.175600  0.074000  1
  F  F73  1  -0.081000  0.436470  -0.461400  1
  F  F74  1  1.081000  0.563530  1.461400  1
  F  F75  1  1.081000  0.936470  0.961400  1
  F  F76  1  -0.081000  1.063530  -0.961400  1
  H  H77  1  0.660100  0.307600  0.666300  1
  H  H78  1  0.799300  0.330000  0.853300  1
  H  H79  1  0.377800  0.356200  1.123100  1
  H  H80  1  0.514800  0.317100  1.167600  1
  H  H81  1  0.756300  0.275800  1.054900  1
  H  H82  1  0.840500  0.258800  0.887900  1
  H  H83  1  0.615600  0.253400  0.868300  1
  H  H84  1  0.666100  0.371100  1.360200  1
  H  H85  1  0.649100  0.398100  1.170400  1
  H  H86  1  0.786700  0.358900  1.214700  1
  H  H87  1  0.310000  0.272600  0.945400  1
  H  H88  1  0.211100  0.254000  0.733000  1
  H  H89  1  0.081400  0.277100  0.845300  1
  H  H90  1  0.006000  0.307300  0.516700  1
  H  H91  1  0.129500  0.349200  0.512100  1
  H  H92  1  0.259000  0.412000  0.318300  1
  H  H93  1  0.665700  0.461700  0.963500  1
  H  H94  1  0.334300  0.538300  0.036500  1
  H  H95  1  0.741000  0.588000  0.681700  1
  H  H96  1  0.889400  0.494300  1.304500  1
  H  H97  1  0.110600  0.505700  -0.304500  1
  H  H98  1  0.339900  0.692400  0.333700  1
  H  H99  1  0.200700  0.670000  0.146700  1
  H  H100  1  0.622200  0.643800  -0.123100  1
  H  H101  1  0.485200  0.682900  -0.167600  1
  H  H102  1  0.243700  0.724200  -0.054900  1
  H  H103  1  0.159500  0.741200  0.112100  1
  H  H104  1  0.384400  0.746600  0.131700  1
  H  H105  1  0.333900  0.628900  -0.360200  1
  H  H106  1  0.350900  0.601900  -0.170400  1
  H  H107  1  0.213300  0.641100  -0.214700  1
  H  H108  1  0.690000  0.727400  0.054600  1
  H  H109  1  0.788900  0.746000  0.267000  1
  H  H110  1  0.918600  0.722900  0.154700  1
  H  H111  1  0.994000  0.692700  0.483300  1
  H  H112  1  0.870500  0.650800  0.487900  1
  H  H113  1  0.339900  0.807600  -0.166300  1
  H  H114  1  0.200700  0.830000  -0.353300  1
  H  H115  1  0.622200  0.856200  -0.623100  1
  H  H116  1  0.485200  0.817100  -0.667600  1
  H  H117  1  0.243700  0.775800  -0.554900  1
  H  H118  1  0.159500  0.758800  -0.387900  1
  H  H119  1  0.384400  0.753400  -0.368300  1
  H  H120  1  0.333900  0.871100  -0.860200  1
  H  H121  1  0.350900  0.898100  -0.670400  1
  H  H122  1  0.213300  0.858900  -0.714700  1
  H  H123  1  0.690000  0.772600  -0.445400  1
  H  H124  1  0.788900  0.754000  -0.233000  1
  H  H125  1  0.918600  0.777100  -0.345300  1
  H  H126  1  0.994000  0.807300  -0.016700  1
  H  H127  1  0.870500  0.849200  -0.012100  1
  H  H128  1  0.741000  0.912000  0.181700  1
  H  H129  1  0.334300  0.961700  -0.463500  1
  H  H130  1  0.665700  1.038300  0.463500  1
  H  H131  1  0.259000  1.088000  -0.181700  1
  H  H132  1  0.110600  0.994300  -0.804500  1
  H  H133  1  0.889400  1.005700  0.804500  1
  H  H134  1  0.660100  1.192400  0.166300  1
  H  H135  1  0.799300  1.170000  0.353300  1
  H  H136  1  0.377800  1.143800  0.623100  1
  H  H137  1  0.514800  1.182900  0.667600  1
  H  H138  1  0.756300  1.224200  0.554900  1
  H  H139  1  0.840500  1.241200  0.387900  1
  H  H140  1  0.615600  1.246600  0.368300  1
  H  H141  1  0.666100  1.128900  0.860200  1
  H  H142  1  0.649100  1.101900  0.670400  1
  H  H143  1  0.786700  1.141100  0.714700  1
  H  H144  1  0.310000  1.227400  0.445400  1
  H  H145  1  0.211100  1.246000  0.233000  1
  H  H146  1  0.081400  1.222900  0.345300  1
  H  H147  1  0.006000  1.192700  0.016700  1
  H  H148  1  0.129500  1.150800  0.012100  1
  S  S149  1  0.042800  0.410750  -0.099500  1
  S  S150  1  0.957200  0.589250  1.099500  1
  S  S151  1  0.957200  0.910750  0.599500  1
  S  S152  1  0.042800  1.089250  -0.599500  1
  Si  Si153  1  0.470550  0.339160  0.845010  1.0
  Si  Si154  1  0.529450  0.660840  0.154990  1
  Si  Si155  1  0.529450  0.839160  -0.345010  1.0
  Si  Si156  1  0.470550  1.160840  0.345010  1
