# generated using pymatgen
data_SiH23(C11Cl2)2
_symmetry_space_group_name_H-M   'P 1'
_cell_length_a   8.89200000
_cell_length_b   14.31580000
_cell_length_c   17.07670000
_cell_angle_alpha   87.02100000
_cell_angle_beta   80.90000000
_cell_angle_gamma   83.55200000
_symmetry_Int_Tables_number   1
_chemical_formula_structural   SiH23(C11Cl2)2
_chemical_formula_sum   'Si4 H92 C88 Cl16'
_cell_volume   2131.56268369
_cell_formula_units_Z   4
loop_
 _symmetry_equiv_pos_site_id
 _symmetry_equiv_pos_as_xyz
  1  'x, y, z'
loop_
 _atom_site_type_symbol
 _atom_site_label
 _atom_site_symmetry_multiplicity
 _atom_site_fract_x
 _atom_site_fract_y
 _atom_site_fract_z
 _atom_site_occupancy
  C  C1  1  0.404100  0.183640  0.780790  1
  C  C2  1  0.219100  0.101880  0.926310  1
  C  C3  1  0.461300  0.245540  0.936590  1
  C  C4  1  0.564900  0.044960  0.889400  1
  C  C5  1  0.418500  0.205910  0.710860  1
  C  C6  1  0.076900  0.172450  0.924160  1
  C  C7  1  0.585500  0.298150  0.885380  1
  C  C8  1  0.535800  -0.052730  0.866450  1
  C  C9  1  0.449100  0.226040  0.627440  1
  C  C10  1  -0.070700  0.126940  0.948990  1
  C  C11  1  0.651700  0.368400  0.930690  1
  C  C12  1  0.526800  -0.057900  0.778850  1
  C  C13  1  0.599200  0.201120  0.586780  1
  C  C14  1  0.332500  0.268080  0.585380  1
  C  C15  1  0.632800  0.217000  0.502370  1
  C  C16  1  0.717600  0.161350  0.627940  1
  C  C17  1  0.183600  0.295030  0.624500  1
  C  C18  1  0.365600  0.284100  0.500720  1
  C  C19  1  0.515100  0.258300  0.460220  1
  C  C20  1  0.782200  0.191240  0.463470  1
  C  C21  1  0.864000  0.136040  0.589400  1
  C  C22  1  0.068300  0.335760  0.583740  1
  C  C23  1  0.247900  0.324600  0.459720  1
  C  C24  1  0.548400  0.275380  0.376210  1
  C  C25  1  0.898000  0.150660  0.504170  1
  C  C26  1  0.985700  0.094060  0.630520  1
  C  C27  1  -0.083600  0.365380  0.623060  1
  C  C28  1  0.101000  0.350320  0.498740  1
  C  C29  1  0.576500  0.292920  0.305900  1
  C  C30  1  1.050600  0.122560  0.465450  1
  C  C31  1  1.127200  0.065860  0.591010  1
  C  C32  1  -0.195100  0.405370  0.582090  1
  C  C33  1  -0.021700  0.391370  0.457780  1
  C  C34  1  1.161100  0.081270  0.506500  1
  C  C35  1  -0.163500  0.418190  0.497340  1
  C  C36  1  0.461500  0.337400  0.149120  1
  C  C37  1  0.783100  0.241930  0.153090  1
  C  C38  1  0.707800  0.447460  0.204400  1
  C  C39  1  0.317300  0.392200  0.190100  1
  C  C40  1  0.906900  0.206500  0.203920  1
  C  C41  1  0.773000  0.489800  0.123440  1
  C  C42  1  0.184400  0.398000  0.142800  1
  C  C43  1  1.039400  0.143500  0.159330  1
  C  C44  1  0.841900  0.580500  0.129900  1
  C  C45  1  0.595900  -0.183640  0.219210  1
  C  C46  1  0.780900  -0.101880  0.073690  1
  C  C47  1  0.538700  -0.245540  0.063410  1
  C  C48  1  0.435100  -0.044960  0.110600  1
  C  C49  1  0.581500  -0.205910  0.289140  1
  C  C50  1  0.923100  -0.172450  0.075840  1
  C  C51  1  0.414500  -0.298150  0.114620  1
  C  C52  1  0.464200  0.052730  0.133550  1
  C  C53  1  0.550900  -0.226040  0.372560  1
  C  C54  1  1.070700  -0.126940  0.051010  1
  C  C55  1  0.348300  -0.368400  0.069310  1
  C  C56  1  0.473200  0.057900  0.221150  1
  C  C57  1  0.400800  -0.201120  0.413220  1
  C  C58  1  0.667500  -0.268080  0.414620  1
  C  C59  1  0.367200  -0.217000  0.497630  1
  C  C60  1  0.282400  -0.161350  0.372060  1
  C  C61  1  0.816400  -0.295030  0.375500  1
  C  C62  1  0.634400  -0.284100  0.499280  1
  C  C63  1  0.484900  -0.258300  0.539780  1
  C  C64  1  0.217800  -0.191240  0.536530  1
  C  C65  1  0.136000  -0.136040  0.410600  1
  C  C66  1  0.931700  -0.335760  0.416260  1
  C  C67  1  0.752100  -0.324600  0.540280  1
  C  C68  1  0.451600  -0.275380  0.623790  1
  C  C69  1  0.102000  -0.150660  0.495830  1
  C  C70  1  0.014300  -0.094060  0.369480  1
  C  C71  1  1.083600  -0.365380  0.376940  1
  C  C72  1  0.899000  -0.350320  0.501260  1
  C  C73  1  0.423500  -0.292920  0.694100  1
  C  C74  1  -0.050600  -0.122560  0.534550  1
  C  C75  1  -0.127200  -0.065860  0.408990  1
  C  C76  1  1.195100  -0.405370  0.417910  1
  C  C77  1  1.021700  -0.391370  0.542220  1
  C  C78  1  -0.161100  -0.081270  0.493500  1
  C  C79  1  1.163500  -0.418190  0.502660  1
  C  C80  1  0.538500  -0.337400  0.850880  1
  C  C81  1  0.216900  -0.241930  0.846910  1
  C  C82  1  0.292200  -0.447460  0.795600  1
  C  C83  1  0.682700  -0.392200  0.809900  1
  C  C84  1  0.093100  -0.206500  0.796080  1
  C  C85  1  0.227000  -0.489800  0.876560  1
  C  C86  1  0.815600  -0.398000  0.857200  1
  C  C87  1  -0.039400  -0.143500  0.840670  1
  C  C88  1  0.158100  -0.580500  0.870100  1
  Cl  Cl89  1  0.948960  0.079860  0.732440  1
  Cl  Cl90  1  -0.122910  0.349750  0.724850  1
  Cl  Cl91  1  1.093280  0.142860  0.364420  1
  Cl  Cl92  1  1.268900  0.011090  0.640540  1
  Cl  Cl93  1  -0.374500  0.443130  0.630840  1
  Cl  Cl94  1  0.014740  0.405460  0.355720  1
  Cl  Cl95  1  1.343240  0.047880  0.459150  1
  Cl  Cl96  1  -0.308450  0.467320  0.447710  1
  Cl  Cl97  1  0.051040  -0.079860  0.267560  1
  Cl  Cl98  1  1.122910  -0.349750  0.275150  1
  Cl  Cl99  1  -0.093280  -0.142860  0.635580  1
  Cl  Cl100  1  -0.268900  -0.011090  0.359460  1
  Cl  Cl101  1  1.374500  -0.443130  0.369160  1
  Cl  Cl102  1  0.985260  -0.405460  0.644280  1
  Cl  Cl103  1  -0.343240  -0.047880  0.540850  1
  Cl  Cl104  1  1.308450  -0.467320  0.552290  1
  H  H105  1  0.206800  0.046300  0.896700  1
  H  H106  1  0.222000  0.080500  0.982200  1
  H  H107  1  0.368600  0.290100  0.950900  1
  H  H108  1  0.498500  0.221900  0.986400  1
  H  H109  1  0.657600  0.062900  0.854300  1
  H  H110  1  0.588900  0.039600  0.944200  1
  H  H111  1  0.079800  0.224100  0.960100  1
  H  H112  1  0.078500  0.200100  0.869700  1
  H  H113  1  0.669600  0.251600  0.862400  1
  H  H114  1  0.541200  0.331900  0.840900  1
  H  H115  1  0.619200  -0.099400  0.880200  1
  H  H116  1  0.438600  -0.069700  0.897800  1
  H  H117  1  -0.077300  0.078700  0.911400  1
  H  H118  1  -0.158500  0.174900  0.949300  1
  H  H119  1  -0.071400  0.097900  1.002300  1
  H  H120  1  0.570000  0.416200  0.952100  1
  H  H121  1  0.730500  0.398800  0.894800  1
  H  H122  1  0.697400  0.335500  0.974400  1
  H  H123  1  0.439200  -0.015600  0.765700  1
  H  H124  1  0.514100  -0.122500  0.766900  1
  H  H125  1  0.621300  -0.039100  0.747400  1
  H  H126  1  0.696000  0.151600  0.683900  1
  H  H127  1  0.161400  0.285000  0.680400  1
  H  H128  1  0.804600  0.201900  0.407700  1
  H  H129  1  0.269400  0.334600  0.403800  1
  H  H130  1  0.488700  0.366300  0.095600  1
  H  H131  1  0.438800  0.272400  0.142200  1
  H  H132  1  0.733600  0.187500  0.139800  1
  H  H133  1  0.832900  0.269900  0.102700  1
  H  H134  1  0.624200  0.492700  0.230000  1
  H  H135  1  0.789400  0.440000  0.238200  1
  H  H136  1  0.339800  0.456700  0.198800  1
  H  H137  1  0.286200  0.361800  0.242700  1
  H  H138  1  0.947600  0.261200  0.223000  1
  H  H139  1  0.859700  0.170900  0.251000  1
  H  H140  1  0.852600  0.443600  0.096100  1
  H  H141  1  0.690100  0.501900  0.090600  1
  H  H142  1  0.211400  0.432300  0.092200  1
  H  H143  1  0.093100  0.431200  0.173200  1
  H  H144  1  0.163500  0.334400  0.132500  1
  H  H145  1  1.000500  0.088000  0.141700  1
  H  H146  1  1.114900  0.123600  0.194500  1
  H  H147  1  1.087800  0.178600  0.113100  1
  H  H148  1  0.763200  0.627000  0.156100  1
  H  H149  1  0.881000  0.604600  0.076700  1
  H  H150  1  0.926100  0.568700  0.161000  1
  H  H151  1  0.793200  -0.046300  0.103300  1
  H  H152  1  0.778000  -0.080500  0.017800  1
  H  H153  1  0.631400  -0.290100  0.049100  1
  H  H154  1  0.501500  -0.221900  0.013600  1
  H  H155  1  0.342400  -0.062900  0.145700  1
  H  H156  1  0.411100  -0.039600  0.055800  1
  H  H157  1  0.920200  -0.224100  0.039900  1
  H  H158  1  0.921500  -0.200100  0.130300  1
  H  H159  1  0.330400  -0.251600  0.137600  1
  H  H160  1  0.458800  -0.331900  0.159100  1
  H  H161  1  0.380800  0.099400  0.119800  1
  H  H162  1  0.561400  0.069700  0.102200  1
  H  H163  1  1.077300  -0.078700  0.088600  1
  H  H164  1  1.158500  -0.174900  0.050700  1
  H  H165  1  1.071400  -0.097900  -0.002300  1
  H  H166  1  0.430000  -0.416200  0.047900  1
  H  H167  1  0.269500  -0.398800  0.105200  1
  H  H168  1  0.302600  -0.335500  0.025600  1
  H  H169  1  0.560800  0.015600  0.234300  1
  H  H170  1  0.485900  0.122500  0.233100  1
  H  H171  1  0.378700  0.039100  0.252600  1
  H  H172  1  0.304000  -0.151600  0.316100  1
  H  H173  1  0.838600  -0.285000  0.319600  1
  H  H174  1  0.195400  -0.201900  0.592300  1
  H  H175  1  0.730600  -0.334600  0.596200  1
  H  H176  1  0.511300  -0.366300  0.904400  1
  H  H177  1  0.561200  -0.272400  0.857800  1
  H  H178  1  0.266400  -0.187500  0.860200  1
  H  H179  1  0.167100  -0.269900  0.897300  1
  H  H180  1  0.375800  -0.492700  0.770000  1
  H  H181  1  0.210600  -0.440000  0.761800  1
  H  H182  1  0.660200  -0.456700  0.801200  1
  H  H183  1  0.713800  -0.361800  0.757300  1
  H  H184  1  0.052400  -0.261200  0.777000  1
  H  H185  1  0.140300  -0.170900  0.749000  1
  H  H186  1  0.147400  -0.443600  0.903900  1
  H  H187  1  0.309900  -0.501900  0.909400  1
  H  H188  1  0.788600  -0.432300  0.907800  1
  H  H189  1  0.906900  -0.431200  0.826800  1
  H  H190  1  0.836500  -0.334400  0.867500  1
  H  H191  1  -0.000500  -0.088000  0.858300  1
  H  H192  1  -0.114900  -0.123600  0.805500  1
  H  H193  1  -0.087800  -0.178600  0.886900  1
  H  H194  1  0.236800  -0.627000  0.843900  1
  H  H195  1  0.119000  -0.604600  0.923300  1
  H  H196  1  0.073900  -0.568700  0.839000  1
  Si  Si197  1  0.408520  0.144190  0.885070  1.0
  Si  Si198  1  0.631690  0.331100  0.201580  1
  Si  Si199  1  0.591480  -0.144190  0.114930  1.0
  Si  Si200  1  0.368310  -0.331100  0.798420  1
