# generated using pymatgen
data_SiH29C24
_symmetry_space_group_name_H-M   'P 1'
_cell_length_a   9.34560000
_cell_length_b   14.91990000
_cell_length_c   14.82380000
_cell_angle_alpha   90.00000000
_cell_angle_beta   95.81030000
_cell_angle_gamma   90.00000000
_symmetry_Int_Tables_number   1
_chemical_formula_structural   SiH29C24
_chemical_formula_sum   'Si4 H116 C96'
_cell_volume   2056.34377365
_cell_formula_units_Z   4
loop_
 _symmetry_equiv_pos_site_id
 _symmetry_equiv_pos_as_xyz
  1  'x, y, z'
loop_
 _atom_site_type_symbol
 _atom_site_label
 _atom_site_symmetry_multiplicity
 _atom_site_fract_x
 _atom_site_fract_y
 _atom_site_fract_z
 _atom_site_occupancy
  C  C1  1  0.604570  0.266110  0.383830  1
  C  C2  1  0.500310  0.075870  0.391100  1
  C  C3  1  0.597800  0.158100  0.216240  1
  C  C4  1  0.821190  0.115550  0.377400  1
  C  C5  1  0.575790  0.339410  0.412730  1
  C  C6  1  0.348820  0.116030  0.388330  1
  C  C7  1  0.496380  -0.016330  0.344410  1
  C  C8  1  0.635200  0.242070  0.167010  1
  C  C9  1  0.480500  0.216630  0.168600  1
  C  C10  1  0.856900  0.112340  0.480270  1
  C  C11  1  0.930300  0.177110  0.337670  1
  C  C12  1  0.539040  0.421880  0.453480  1
  C  C13  1  0.641220  0.463650  0.517350  1
  C  C14  1  0.398950  0.458110  0.434220  1
  C  C15  1  0.782410  0.430350  0.534500  1
  C  C16  1  0.601050  0.541890  0.565780  1
  C  C17  1  0.358780  0.536350  0.482650  1
  C  C18  1  0.297910  0.420830  0.367190  1
  C  C19  1  0.882650  0.468350  0.599140  1
  C  C20  1  0.460960  0.578120  0.546520  1
  C  C21  1  0.702090  0.579170  0.632810  1
  C  C22  1  0.217590  0.569650  0.465500  1
  C  C23  1  0.160430  0.456100  0.348300  1
  C  C24  1  1.027830  0.434900  0.613760  1
  C  C25  1  0.839570  0.543900  0.651700  1
  C  C26  1  0.424210  0.660590  0.587270  1
  C  C27  1  0.117350  0.531650  0.400860  1
  C  C28  1  0.058130  0.418170  0.278980  1
  C  C29  1  1.120740  0.475750  0.677080  1
  C  C30  1  1.073740  0.356640  0.559210  1
  C  C31  1  0.941870  0.581830  0.721020  1
  C  C32  1  0.395430  0.733890  0.616170  1
  C  C33  1  -0.027830  0.565100  0.386240  1
  C  C34  1  -0.077740  0.452090  0.268710  1
  C  C35  1  0.102390  0.343870  0.219310  1
  C  C36  1  1.077740  0.547910  0.731290  1
  C  C37  1  0.897610  0.656130  0.780690  1
  C  C38  1  -0.120740  0.524250  0.322920  1
  C  C39  1  -0.073740  0.643360  0.440790  1
  C  C40  1  0.499690  0.924130  0.608900  1
  C  C41  1  0.402200  0.841900  0.783760  1
  C  C42  1  0.178810  0.884450  0.622600  1
  C  C43  1  0.651180  0.883970  0.611670  1
  C  C44  1  0.503620  1.016330  0.655590  1
  C  C45  1  0.364800  0.757930  0.832990  1
  C  C46  1  0.519500  0.783370  0.831400  1
  C  C47  1  0.143100  0.887660  0.519730  1
  C  C48  1  0.069700  0.822890  0.662330  1
  C  C49  1  0.395430  0.766110  0.116170  1
  C  C50  1  0.499690  0.575870  0.108900  1
  C  C51  1  0.402200  0.658100  0.283760  1
  C  C52  1  0.178810  0.615550  0.122600  1
  C  C53  1  0.424210  0.839410  0.087270  1
  C  C54  1  0.651180  0.616030  0.111670  1
  C  C55  1  0.503620  0.483670  0.155590  1
  C  C56  1  0.364800  0.742070  0.332990  1
  C  C57  1  0.519500  0.716630  0.331400  1
  C  C58  1  0.143100  0.612340  0.019730  1
  C  C59  1  0.069700  0.677110  0.162330  1
  C  C60  1  0.460960  0.921880  0.046520  1
  C  C61  1  0.358780  0.963650  -0.017350  1
  C  C62  1  0.601050  0.958110  0.065780  1
  C  C63  1  0.217590  0.930350  -0.034500  1
  C  C64  1  0.398950  1.041890  -0.065780  1
  C  C65  1  0.641220  1.036350  0.017350  1
  C  C66  1  0.702090  0.920830  0.132810  1
  C  C67  1  0.117350  0.968350  -0.099140  1
  C  C68  1  0.539040  1.078120  -0.046520  1
  C  C69  1  0.297910  1.079170  -0.132810  1
  C  C70  1  0.782410  1.069650  0.034500  1
  C  C71  1  0.839570  0.956100  0.151700  1
  C  C72  1  -0.027830  0.934900  -0.113760  1
  C  C73  1  0.160430  1.043900  -0.151700  1
  C  C74  1  0.575790  1.160590  -0.087270  1
  C  C75  1  0.882650  1.031650  0.099140  1
  C  C76  1  0.941870  0.918170  0.221020  1
  C  C77  1  -0.120740  0.975750  -0.177080  1
  C  C78  1  -0.073740  0.856640  -0.059210  1
  C  C79  1  0.058130  1.081830  -0.221020  1
  C  C80  1  0.604570  1.233890  -0.116170  1
  C  C81  1  1.027830  1.065100  0.113760  1
  C  C82  1  1.077740  0.952090  0.231290  1
  C  C83  1  0.897610  0.843870  0.280690  1
  C  C84  1  -0.077740  1.047910  -0.231290  1
  C  C85  1  0.102390  1.156130  -0.280690  1
  C  C86  1  1.120740  1.024250  0.177080  1
  C  C87  1  1.073740  1.143360  0.059210  1
  C  C88  1  0.500310  1.424130  -0.108900  1
  C  C89  1  0.597800  1.341900  -0.283760  1
  C  C90  1  0.821190  1.384450  -0.122600  1
  C  C91  1  0.348820  1.383970  -0.111670  1
  C  C92  1  0.496380  1.516330  -0.155590  1
  C  C93  1  0.635200  1.257930  -0.332990  1
  C  C94  1  0.480500  1.283370  -0.331400  1
  C  C95  1  0.856900  1.387660  -0.019730  1
  C  C96  1  0.930300  1.322890  -0.162330  1
  H  H97  1  0.536000  0.066400  0.456300  1
  H  H98  1  0.616000  0.101000  0.184000  1
  H  H99  1  0.833700  0.053800  0.353200  1
  H  H100  1  0.311400  0.127500  0.325200  1
  H  H101  1  0.353000  0.172400  0.422400  1
  H  H102  1  0.285400  0.073800  0.415600  1
  H  H103  1  0.427300  -0.055100  0.371100  1
  H  H104  1  0.592200  -0.043600  0.352900  1
  H  H105  1  0.467200  -0.009000  0.279500  1
  H  H106  1  0.671200  0.294100  0.204100  1
  H  H107  1  0.678200  0.235000  0.109100  1
  H  H108  1  0.428500  0.193700  0.111800  1
  H  H109  1  0.421400  0.252800  0.206800  1
  H  H110  1  0.956700  0.092800  0.494700  1
  H  H111  1  0.792300  0.070000  0.506400  1
  H  H112  1  0.844500  0.172100  0.505700  1
  H  H113  1  0.918300  0.238500  0.359100  1
  H  H114  1  0.914200  0.175800  0.271300  1
  H  H115  1  1.028000  0.156300  0.357200  1
  H  H116  1  0.810100  0.380200  0.500800  1
  H  H117  1  0.324800  0.370100  0.334000  1
  H  H118  1  0.675200  0.629900  0.666000  1
  H  H119  1  0.189900  0.619800  0.499200  1
  H  H120  1  1.217600  0.455600  0.685600  1
  H  H121  1  1.175000  0.342800  0.577600  1
  H  H122  1  1.061700  0.371900  0.494600  1
  H  H123  1  1.014400  0.304300  0.570000  1
  H  H124  1  -0.146100  0.426900  0.224000  1
  H  H125  1  0.019600  0.325200  0.177700  1
  H  H126  1  0.179300  0.365100  0.184300  1
  H  H127  1  0.137200  0.292800  0.257000  1
  H  H128  1  1.146100  0.573100  0.776000  1
  H  H129  1  0.980400  0.674800  0.822300  1
  H  H130  1  0.820700  0.634900  0.815700  1
  H  H131  1  0.862800  0.707200  0.743000  1
  H  H132  1  -0.217600  0.544400  0.314400  1
  H  H133  1  -0.175000  0.657200  0.422400  1
  H  H134  1  -0.061700  0.628100  0.505400  1
  H  H135  1  -0.014400  0.695700  0.430000  1
  H  H136  1  0.464000  0.933600  0.543700  1
  H  H137  1  0.384000  0.899000  0.816000  1
  H  H138  1  0.166300  0.946200  0.646800  1
  H  H139  1  0.688600  0.872500  0.674800  1
  H  H140  1  0.647000  0.827600  0.577600  1
  H  H141  1  0.714600  0.926200  0.584400  1
  H  H142  1  0.572700  1.055100  0.628900  1
  H  H143  1  0.407800  1.043600  0.647100  1
  H  H144  1  0.532800  1.009000  0.720500  1
  H  H145  1  0.328800  0.705900  0.795900  1
  H  H146  1  0.321800  0.765000  0.890900  1
  H  H147  1  0.571500  0.806300  0.888200  1
  H  H148  1  0.578600  0.747200  0.793200  1
  H  H149  1  0.043300  0.907200  0.505300  1
  H  H150  1  0.207700  0.930000  0.493600  1
  H  H151  1  0.155500  0.827900  0.494300  1
  H  H152  1  0.081700  0.761500  0.640900  1
  H  H153  1  0.085800  0.824200  0.728700  1
  H  H154  1  -0.028000  0.843700  0.642800  1
  H  H155  1  0.464000  0.566400  0.043700  1
  H  H156  1  0.384000  0.601000  0.316000  1
  H  H157  1  0.166300  0.553800  0.146800  1
  H  H158  1  0.688600  0.627500  0.174800  1
  H  H159  1  0.647000  0.672400  0.077600  1
  H  H160  1  0.714600  0.573800  0.084400  1
  H  H161  1  0.572700  0.444900  0.128900  1
  H  H162  1  0.407800  0.456400  0.147100  1
  H  H163  1  0.532800  0.491000  0.220500  1
  H  H164  1  0.328800  0.794100  0.295900  1
  H  H165  1  0.321800  0.735000  0.390900  1
  H  H166  1  0.571500  0.693700  0.388200  1
  H  H167  1  0.578600  0.752800  0.293200  1
  H  H168  1  0.043300  0.592800  0.005300  1
  H  H169  1  0.207700  0.570000  -0.006400  1
  H  H170  1  0.155500  0.672100  -0.005700  1
  H  H171  1  0.081700  0.738500  0.140900  1
  H  H172  1  0.085800  0.675800  0.228700  1
  H  H173  1  -0.028000  0.656300  0.142800  1
  H  H174  1  0.189900  0.880200  -0.000800  1
  H  H175  1  0.675200  0.870100  0.166000  1
  H  H176  1  0.324800  1.129900  -0.166000  1
  H  H177  1  0.810100  1.119800  0.000800  1
  H  H178  1  -0.217600  0.955600  -0.185600  1
  H  H179  1  -0.175000  0.842800  -0.077600  1
  H  H180  1  -0.061700  0.871900  0.005400  1
  H  H181  1  -0.014400  0.804300  -0.070000  1
  H  H182  1  1.146100  0.926900  0.276000  1
  H  H183  1  0.980400  0.825200  0.322300  1
  H  H184  1  0.820700  0.865100  0.315700  1
  H  H185  1  0.862800  0.792800  0.243000  1
  H  H186  1  -0.146100  1.073100  -0.276000  1
  H  H187  1  0.019600  1.174800  -0.322300  1
  H  H188  1  0.179300  1.134900  -0.315700  1
  H  H189  1  0.137200  1.207200  -0.243000  1
  H  H190  1  1.217600  1.044400  0.185600  1
  H  H191  1  1.175000  1.157200  0.077600  1
  H  H192  1  1.061700  1.128100  -0.005400  1
  H  H193  1  1.014400  1.195700  0.070000  1
  H  H194  1  0.536000  1.433600  -0.043700  1
  H  H195  1  0.616000  1.399000  -0.316000  1
  H  H196  1  0.833700  1.446200  -0.146800  1
  H  H197  1  0.311400  1.372500  -0.174800  1
  H  H198  1  0.353000  1.327600  -0.077600  1
  H  H199  1  0.285400  1.426200  -0.084400  1
  H  H200  1  0.427300  1.555100  -0.128900  1
  H  H201  1  0.592200  1.543600  -0.147100  1
  H  H202  1  0.467200  1.509000  -0.220500  1
  H  H203  1  0.671200  1.205900  -0.295900  1
  H  H204  1  0.678200  1.265000  -0.390900  1
  H  H205  1  0.428500  1.306300  -0.388200  1
  H  H206  1  0.421400  1.247200  -0.293200  1
  H  H207  1  0.956700  1.407200  -0.005300  1
  H  H208  1  0.792300  1.430000  0.006400  1
  H  H209  1  0.844500  1.327900  0.005700  1
  H  H210  1  0.918300  1.261500  -0.140900  1
  H  H211  1  0.914200  1.324200  -0.228700  1
  H  H212  1  1.028000  1.343700  -0.142800  1
  Si  Si213  1  0.631860  0.152260  0.341200  1.0
  Si  Si214  1  0.368140  0.847740  0.658800  1
  Si  Si215  1  0.368140  0.652260  0.158800  1.0
  Si  Si216  1  0.631860  1.347740  -0.158800  1
