# generated using pymatgen
data_SiH32C29S3F
_symmetry_space_group_name_H-M   'P 1'
_cell_length_a   9.95560000
_cell_length_b   10.14930000
_cell_length_c   14.95800000
_cell_angle_alpha   92.56400000
_cell_angle_beta   98.00800000
_cell_angle_gamma   110.72200000
_symmetry_Int_Tables_number   1
_chemical_formula_structural   SiH32C29S3F
_chemical_formula_sum   'Si2 H64 C58 S6 F2'
_cell_volume   1392.59995999
_cell_formula_units_Z   2
loop_
 _symmetry_equiv_pos_site_id
 _symmetry_equiv_pos_as_xyz
  1  'x, y, z'
loop_
 _atom_site_type_symbol
 _atom_site_label
 _atom_site_symmetry_multiplicity
 _atom_site_fract_x
 _atom_site_fract_y
 _atom_site_fract_z
 _atom_site_occupancy
  C  C1  1  0.745300  0.921900  0.252120  1
  C  C2  1  0.663500  0.782400  0.056600  1
  C  C3  1  0.433600  0.836300  0.152000  1
  C  C4  1  0.689800  1.090000  0.103310  1
  C  C5  1  0.817500  0.937500  0.325900  1
  C  C6  1  0.785200  0.799700  0.021000  1
  C  C7  1  0.360600  0.675500  0.157300  1
  C  C8  1  0.725600  1.218300  0.173600  1
  C  C9  1  0.906320  0.964970  0.413120  1
  C  C10  1  0.805700  0.724300  -0.055200  1
  C  C11  1  0.931600  0.835000  0.097500  1
  C  C12  1  0.421600  0.626800  0.243000  1
  C  C13  1  0.195500  0.636800  0.149800  1
  C  C14  1  0.595500  1.215400  0.215800  1
  C  C15  1  0.787300  1.355900  0.130300  1
  C  C16  1  0.920670  1.081970  0.472090  1
  C  C17  1  0.987360  0.882930  0.443230  1
  C  C18  1  1.012640  1.117070  0.556770  1
  C  C19  1  1.079330  0.918030  0.527910  1
  C  C20  1  1.010200  0.756400  0.408900  1
  C  C21  1  1.093680  1.035030  0.586880  1
  C  C22  1  0.989800  1.243600  0.591100  1
  C  C23  1  0.900000  1.294000  0.538800  1
  C  C24  1  1.100000  0.706000  0.461200  1
  C  C25  1  1.182500  1.062500  0.674100  1
  C  C26  1  0.865000  1.416000  0.562400  1
  C  C27  1  1.135000  0.584000  0.437600  1
  C  C28  1  1.254700  1.078100  0.747880  1
  C  C29  1  0.763400  1.454400  0.510400  1
  C  C30  1  1.236600  0.545600  0.489600  1
  C  C31  1  0.749800  1.579300  0.547500  1
  C  C32  1  0.847500  1.638900  0.629800  1
  C  C33  1  1.250200  0.420700  0.452500  1
  C  C34  1  1.152500  0.361100  0.370200  1
  C  C35  1  1.336500  1.217600  0.943400  1
  C  C36  1  1.566400  1.163700  0.848000  1
  C  C37  1  1.310200  0.910000  0.896690  1
  C  C38  1  0.659100  1.648300  0.509900  1
  C  C39  1  0.853000  1.760400  0.678900  1
  C  C40  1  1.340900  0.351700  0.490100  1
  C  C41  1  1.147000  0.239600  0.321100  1
  C  C42  1  1.214800  1.200300  0.979000  1
  C  C43  1  1.639400  1.324500  0.842700  1
  C  C44  1  1.274400  0.781700  0.826400  1
  C  C45  1  0.666100  1.771500  0.558400  1
  C  C46  1  0.760600  1.828200  0.642600  1
  C  C47  1  1.333900  0.228500  0.441600  1
  C  C48  1  1.239400  0.171800  0.357400  1
  C  C49  1  1.194300  1.275700  1.055200  1
  C  C50  1  1.068400  1.165000  0.902500  1
  C  C51  1  1.578400  1.373200  0.757000  1
  C  C52  1  1.804500  1.363200  0.850200  1
  C  C53  1  1.404500  0.784600  0.784200  1
  C  C54  1  1.212700  0.644100  0.869700  1
  C  C55  1  0.750900  1.957200  0.677500  1
  C  C56  1  1.249100  0.042800  0.322500  1
  C  C57  1  0.644800  1.989200  0.626000  1
  C  C58  1  1.355200  0.010800  0.374000  1
  F  F59  1  0.933500  0.691400  0.326470  1
  F  F60  1  1.066500  1.308600  0.673530  1
  H  H61  1  0.641800  0.692600  0.085000  1
  H  H62  1  0.584900  0.764300  0.003900  1
  H  H63  1  0.421900  0.885800  0.207200  1
  H  H64  1  0.378500  0.861500  0.099500  1
  H  H65  1  0.776700  1.104700  0.074200  1
  H  H66  1  0.610900  1.091600  0.055600  1
  H  H67  1  0.803800  0.894800  -0.001600  1
  H  H68  1  0.378700  0.624900  0.104000  1
  H  H69  1  0.802600  1.215100  0.223100  1
  H  H70  1  0.804900  0.631500  -0.039200  1
  H  H71  1  0.899300  0.777900  -0.073000  1
  H  H72  1  0.726800  0.711500  -0.105900  1
  H  H73  1  0.941900  0.915700  0.139900  1
  H  H74  1  1.017400  0.858300  0.067500  1
  H  H75  1  0.923100  0.752200  0.130800  1
  H  H76  1  0.402500  0.673000  0.296200  1
  H  H77  1  0.526900  0.652100  0.246400  1
  H  H78  1  0.374800  0.523900  0.241800  1
  H  H79  1  0.148800  0.535200  0.154400  1
  H  H80  1  0.156800  0.660000  0.091200  1
  H  H81  1  0.175400  0.690500  0.198900  1
  H  H82  1  0.515200  1.210000  0.167900  1
  H  H83  1  0.621800  1.301800  0.256900  1
  H  H84  1  0.565100  1.132600  0.249900  1
  H  H85  1  0.713200  1.362400  0.082000  1
  H  H86  1  0.873000  1.357000  0.104600  1
  H  H87  1  0.815300  1.436600  0.176500  1
  H  H88  1  0.707500  1.402500  0.454800  1
  H  H89  1  1.292500  0.597500  0.545200  1
  H  H90  1  1.358200  1.307400  0.915000  1
  H  H91  1  1.415100  1.235700  0.996100  1
  H  H92  1  1.578100  1.114200  0.792800  1
  H  H93  1  1.621500  1.138500  0.900500  1
  H  H94  1  1.223300  0.895300  0.925800  1
  H  H95  1  1.389100  0.908400  0.944400  1
  H  H96  1  0.595400  1.612500  0.453700  1
  H  H97  1  0.917000  1.796100  0.735000  1
  H  H98  1  1.404600  0.387500  0.546300  1
  H  H99  1  1.083000  0.203900  0.265000  1
  H  H100  1  1.196200  1.105200  1.001600  1
  H  H101  1  1.621300  1.375100  0.896000  1
  H  H102  1  1.197400  0.784900  0.776900  1
  H  H103  1  1.195100  1.368500  1.039200  1
  H  H104  1  1.100700  1.222100  1.073000  1
  H  H105  1  1.273200  1.288500  1.105900  1
  H  H106  1  1.058100  1.084300  0.860100  1
  H  H107  1  0.982600  1.141700  0.932500  1
  H  H108  1  1.076900  1.247800  0.869200  1
  H  H109  1  1.597500  1.327000  0.703800  1
  H  H110  1  1.473100  1.347900  0.753600  1
  H  H111  1  1.625200  1.476100  0.758200  1
  H  H112  1  1.851200  1.464800  0.845600  1
  H  H113  1  1.843200  1.340000  0.908800  1
  H  H114  1  1.824600  1.309500  0.801100  1
  H  H115  1  1.484800  0.790000  0.832100  1
  H  H116  1  1.378200  0.698200  0.743100  1
  H  H117  1  1.434900  0.867400  0.750100  1
  H  H118  1  1.286800  0.637600  0.918000  1
  H  H119  1  1.127000  0.643000  0.895400  1
  H  H120  1  1.184700  0.563400  0.823500  1
  H  H121  1  0.811400  2.014000  0.730500  1
  H  H122  1  1.188600  -0.014000  0.269500  1
  H  H123  1  0.616500  2.065600  0.642800  1
  H  H124  1  1.383500  -0.065600  0.357200  1
  S  S125  1  0.820390  1.183900  0.438790  1
  S  S126  1  1.179610  0.816100  0.561210  1
  S  S127  1  0.948550  1.532920  0.658930  1
  S  S128  1  1.051450  0.467080  0.341070  1
  S  S129  1  0.567890  1.879100  0.528760  1
  S  S130  1  1.432110  0.120900  0.471240  1
  Si  Si131  1  0.633940  0.910520  0.140750  1.0
  Si  Si132  1  1.366060  1.089480  0.859250  1
