# generated using pymatgen
data_SiH27(C12S)2
_symmetry_space_group_name_H-M   'P 1'
_cell_length_a   9.73900000
_cell_length_b   16.72800000
_cell_length_c   17.12060000
_cell_angle_alpha   90.00000000
_cell_angle_beta   106.43600000
_cell_angle_gamma   90.00000000
_symmetry_Int_Tables_number   1
_chemical_formula_structural   SiH27(C12S)2
_chemical_formula_sum   'Si4 H108 C96 S8'
_cell_volume   2675.20909702
_cell_formula_units_Z   4
loop_
 _symmetry_equiv_pos_site_id
 _symmetry_equiv_pos_as_xyz
  1  'x, y, z'
loop_
 _atom_site_type_symbol
 _atom_site_label
 _atom_site_symmetry_multiplicity
 _atom_site_fract_x
 _atom_site_fract_y
 _atom_site_fract_z
 _atom_site_occupancy
  C  C1  1  0.994700  0.686500  0.651000  1
  C  C2  1  0.802900  0.770500  0.730300  1
  C  C3  1  1.127300  0.757100  0.810800  1
  C  C4  1  0.974900  0.873400  0.659400  1
  C  C5  1  0.999800  0.632300  0.606490  1
  C  C6  1  0.684600  0.718300  0.696100  1
  C  C7  1  1.139300  0.682200  0.861800  1
  C  C8  1  1.087100  0.883100  0.641100  1
  C  C9  1  1.000500  0.566160  0.553360  1
  C  C10  1  0.544700  0.721000  0.703000  1
  C  C11  1  1.270000  0.680000  0.935600  1
  C  C12  1  1.087000  0.985500  0.618200  1
  C  C13  1  1.125300  0.524900  0.554760  1
  C  C14  1  0.872800  0.540770  0.497550  1
  C  C15  1  1.127200  0.459230  0.502450  1
  C  C16  1  0.874700  0.475100  0.445240  1
  C  C17  1  0.731000  0.574360  0.485620  1
  C  C18  1  0.999500  0.433840  0.446640  1
  C  C19  1  1.269000  0.425640  0.514380  1
  C  C20  1  1.368100  0.467880  0.576100  1
  C  C21  1  0.631900  0.532120  0.423900  1
  C  C22  1  1.000200  0.367700  0.393510  1
  C  C23  1  1.519800  0.454550  0.603620  1
  C  C24  1  0.480200  0.545450  0.396380  1
  C  C25  1  1.005300  0.313500  0.349000  1
  C  C26  1  1.621400  0.491000  0.659600  1
  C  C27  1  0.378600  0.509000  0.340400  1
  C  C28  1  1.763600  0.466000  0.670000  1
  C  C29  1  1.763300  0.402400  0.616200  1
  C  C30  1  0.236400  0.534000  0.330000  1
  C  C31  1  0.236700  0.597600  0.383800  1
  C  C32  1  1.197100  0.229500  0.269700  1
  C  C33  1  0.872700  0.242900  0.189200  1
  C  C34  1  1.025100  0.126600  0.340600  1
  C  C35  1  1.891700  0.491700  0.725100  1
  C  C36  1  1.894200  0.365900  0.615600  1
  C  C37  1  0.108300  0.508300  0.274900  1
  C  C38  1  0.105800  0.634100  0.384400  1
  C  C39  1  1.315400  0.281700  0.303900  1
  C  C40  1  0.860700  0.317800  0.138200  1
  C  C41  1  0.912900  0.116900  0.358900  1
  C  C42  1  2.018000  0.453900  0.723800  1
  C  C43  1  2.017400  0.392800  0.670200  1
  C  C44  1  -0.018000  0.546100  0.276200  1
  C  C45  1  -0.017400  0.607200  0.329800  1
  C  C46  1  1.455300  0.279000  0.297000  1
  C  C47  1  0.730000  0.320000  0.064400  1
  C  C48  1  0.913000  0.014500  0.381800  1
  C  C49  1  1.505300  0.186500  0.849000  1
  C  C50  1  1.697100  0.270500  0.769700  1
  C  C51  1  1.372700  0.257100  0.689200  1
  C  C52  1  1.525100  0.373400  0.840600  1
  C  C53  1  1.500200  0.132300  0.893510  1
  C  C54  1  1.815400  0.218300  0.803900  1
  C  C55  1  1.360700  0.182200  0.638200  1
  C  C56  1  1.412900  0.383100  0.858900  1
  C  C57  1  1.499500  0.066160  0.946640  1
  C  C58  1  1.955300  0.221000  0.797000  1
  C  C59  1  1.230000  0.180000  0.564400  1
  C  C60  1  1.413000  0.485500  0.881800  1
  C  C61  1  1.374700  0.024900  0.945240  1
  C  C62  1  1.627200  0.040770  1.002450  1
  C  C63  1  1.372800  -0.040770  0.997550  1
  C  C64  1  1.625300  -0.024900  1.054760  1
  C  C65  1  1.769000  0.074360  1.014380  1
  C  C66  1  1.500500  -0.066160  1.053360  1
  C  C67  1  1.231000  -0.074360  0.985620  1
  C  C68  1  1.131900  -0.032120  0.923900  1
  C  C69  1  1.868100  0.032120  1.076100  1
  C  C70  1  1.499800  -0.132300  1.106490  1
  C  C71  1  0.980200  -0.045450  0.896380  1
  C  C72  1  2.019800  0.045450  1.103620  1
  C  C73  1  1.494700  -0.186500  1.151000  1
  C  C74  1  0.878600  -0.009000  0.840400  1
  C  C75  1  2.121400  0.009000  1.159600  1
  C  C76  1  0.736400  -0.034000  0.830000  1
  C  C77  1  0.736700  -0.097600  0.883800  1
  C  C78  1  2.263600  0.034000  1.170000  1
  C  C79  1  2.263300  0.097600  1.116200  1
  C  C80  1  1.302900  -0.270500  1.230300  1
  C  C81  1  1.627300  -0.257100  1.310800  1
  C  C82  1  1.474900  -0.373400  1.159400  1
  C  C83  1  0.608300  -0.008300  0.774900  1
  C  C84  1  0.605800  -0.134100  0.884400  1
  C  C85  1  2.391700  0.008300  1.225100  1
  C  C86  1  2.394200  0.134100  1.115600  1
  C  C87  1  1.184600  -0.218300  1.196100  1
  C  C88  1  1.639300  -0.182200  1.361800  1
  C  C89  1  1.587100  -0.383100  1.141100  1
  C  C90  1  0.482000  -0.046100  0.776200  1
  C  C91  1  0.482600  -0.107200  0.829800  1
  C  C92  1  2.518000  0.046100  1.223800  1
  C  C93  1  2.517400  0.107200  1.170200  1
  C  C94  1  1.044700  -0.221000  1.203000  1
  C  C95  1  1.770000  -0.180000  1.435600  1
  C  C96  1  1.587000  -0.485500  1.118200  1
  H  H97  1  0.818042  0.767011  0.789886  1
  H  H98  1  0.764929  0.824893  0.714546  1
  H  H99  1  1.218240  0.762055  0.796114  1
  H  H100  1  1.123772  0.802711  0.846987  1
  H  H101  1  0.892943  0.872734  0.609518  1
  H  H102  1  0.960829  0.918052  0.694270  1
  H  H103  1  0.673315  0.718805  0.636759  1
  H  H104  1  0.720027  0.664214  0.715105  1
  H  H105  1  1.142334  0.635311  0.827067  1
  H  H106  1  1.052259  0.677406  0.880424  1
  H  H107  1  1.088390  0.850130  0.593223  1
  H  H108  1  1.170967  0.868959  0.687104  1
  H  H109  1  0.478134  0.700264  0.652911  1
  H  H110  1  0.519504  0.776340  0.711558  1
  H  H111  1  0.538614  0.688135  0.749294  1
  H  H112  1  1.283309  0.625545  0.957539  1
  H  H113  1  1.255308  0.716607  0.977275  1
  H  H114  1  1.354449  0.696393  0.919602  1
  H  H115  1  1.174187  0.998845  0.603377  1
  H  H116  1  1.083300  1.016785  0.666022  1
  H  H117  1  1.002973  0.997980  0.572600  1
  H  H118  1  0.708665  0.618231  0.515074  1
  H  H119  1  1.291335  0.381769  0.484926  1
  H  H120  1  1.599612  0.532643  0.691884  1
  H  H121  1  0.400388  0.467357  0.308116  1
  H  H122  1  1.181958  0.232989  0.210114  1
  H  H123  1  1.235071  0.175107  0.285454  1
  H  H124  1  0.781760  0.237945  0.203886  1
  H  H125  1  0.876228  0.197289  0.153013  1
  H  H126  1  1.107057  0.127266  0.390482  1
  H  H127  1  1.039171  0.081948  0.305730  1
  H  H128  1  1.892117  0.533844  0.762375  1
  H  H129  1  1.896633  0.324120  0.578529  1
  H  H130  1  0.107883  0.466156  0.237625  1
  H  H131  1  0.103367  0.675880  0.421471  1
  H  H132  1  1.326685  0.281195  0.363241  1
  H  H133  1  1.279973  0.335786  0.284895  1
  H  H134  1  0.857666  0.364689  0.172933  1
  H  H135  1  0.947741  0.322594  0.119576  1
  H  H136  1  0.911610  0.149870  0.406777  1
  H  H137  1  0.829033  0.131041  0.312896  1
  H  H138  1  2.105988  0.470524  0.760454  1
  H  H139  1  2.105681  0.368172  0.670987  1
  H  H140  1  -0.105988  0.529476  0.239546  1
  H  H141  1  -0.105681  0.631828  0.329013  1
  H  H142  1  1.521866  0.299736  0.347089  1
  H  H143  1  1.480496  0.223660  0.288442  1
  H  H144  1  1.461386  0.311865  0.250706  1
  H  H145  1  0.716691  0.374455  0.042461  1
  H  H146  1  0.744692  0.283393  0.022725  1
  H  H147  1  0.645551  0.303607  0.080398  1
  H  H148  1  0.825813  0.001155  0.396623  1
  H  H149  1  0.916700  -0.016785  0.333978  1
  H  H150  1  0.997027  0.002020  0.427400  1
  H  H151  1  1.681958  0.267011  0.710114  1
  H  H152  1  1.735071  0.324893  0.785454  1
  H  H153  1  1.281760  0.262055  0.703886  1
  H  H154  1  1.376228  0.302711  0.653013  1
  H  H155  1  1.607057  0.372734  0.890482  1
  H  H156  1  1.539171  0.418052  0.805730  1
  H  H157  1  1.826685  0.218805  0.863241  1
  H  H158  1  1.779973  0.164214  0.784895  1
  H  H159  1  1.357666  0.135311  0.672933  1
  H  H160  1  1.447741  0.177406  0.619576  1
  H  H161  1  1.411610  0.350130  0.906777  1
  H  H162  1  1.329033  0.368959  0.812896  1
  H  H163  1  2.021866  0.200264  0.847089  1
  H  H164  1  1.980496  0.276340  0.788442  1
  H  H165  1  1.961386  0.188135  0.750706  1
  H  H166  1  1.216691  0.125545  0.542461  1
  H  H167  1  1.244692  0.216607  0.522725  1
  H  H168  1  1.145551  0.196393  0.580398  1
  H  H169  1  1.325813  0.498845  0.896623  1
  H  H170  1  1.416700  0.516785  0.833978  1
  H  H171  1  1.497027  0.497980  0.927400  1
  H  H172  1  1.791335  0.118231  0.984926  1
  H  H173  1  1.208665  -0.118231  1.015074  1
  H  H174  1  0.900388  0.032643  0.808116  1
  H  H175  1  2.099612  -0.032643  1.191884  1
  H  H176  1  1.318042  -0.267011  1.289886  1
  H  H177  1  1.264929  -0.324893  1.214546  1
  H  H178  1  1.718240  -0.262055  1.296114  1
  H  H179  1  1.623772  -0.302711  1.346987  1
  H  H180  1  1.392943  -0.372734  1.109518  1
  H  H181  1  1.460829  -0.418052  1.194270  1
  H  H182  1  0.607883  0.033844  0.737625  1
  H  H183  1  0.603367  -0.175880  0.921471  1
  H  H184  1  2.392117  -0.033844  1.262375  1
  H  H185  1  2.396633  0.175880  1.078529  1
  H  H186  1  1.173315  -0.218805  1.136759  1
  H  H187  1  1.220027  -0.164214  1.215105  1
  H  H188  1  1.642334  -0.135311  1.327067  1
  H  H189  1  1.552259  -0.177406  1.380424  1
  H  H190  1  1.588390  -0.350130  1.093223  1
  H  H191  1  1.670967  -0.368959  1.187104  1
  H  H192  1  0.394012  -0.029476  0.739546  1
  H  H193  1  0.394319  -0.131828  0.829013  1
  H  H194  1  2.605988  0.029476  1.260454  1
  H  H195  1  2.605681  0.131828  1.170987  1
  H  H196  1  0.978134  -0.200264  1.152911  1
  H  H197  1  1.019504  -0.276340  1.211558  1
  H  H198  1  1.038614  -0.188135  1.249294  1
  H  H199  1  1.783309  -0.125545  1.457539  1
  H  H200  1  1.755308  -0.216607  1.477275  1
  H  H201  1  1.854449  -0.196393  1.419602  1
  H  H202  1  1.674187  -0.498845  1.103377  1
  H  H203  1  1.583300  -0.516785  1.166022  1
  H  H204  1  1.502973  -0.497980  1.072600  1
  S  S205  1  1.292570  0.545390  0.619120  1
  S  S206  1  0.707430  0.454610  0.380880  1
  S  S207  1  1.593700  0.379270  0.556330  1
  S  S208  1  0.406300  0.620730  0.443670  1
  S  S209  1  1.207430  0.045390  0.880880  1
  S  S210  1  1.792570  -0.045390  1.119120  1
  S  S211  1  0.906300  -0.120730  0.943670  1
  S  S212  1  2.093700  0.120730  1.056330  1
  Si  Si213  1  0.983700  0.772000  0.717800  1.0
  Si  Si214  1  1.016300  0.228000  0.282200  1
  Si  Si215  1  1.516300  0.272000  0.782200  1.0
  Si  Si216  1  1.483700  -0.272000  1.217800  1
