# generated using pymatgen
data_SiH32C29S3F
_symmetry_space_group_name_H-M   'P 1'
_cell_length_a   10.18040000
_cell_length_b   17.69780000
_cell_length_c   24.06420000
_cell_angle_alpha   94.49600000
_cell_angle_beta   101.53200000
_cell_angle_gamma   100.16600000
_symmetry_Int_Tables_number   1
_chemical_formula_structural   SiH32C29S3F
_chemical_formula_sum   'Si6 H192 C174 S18 F6'
_cell_volume   4152.29931074
_cell_formula_units_Z   6
loop_
 _symmetry_equiv_pos_site_id
 _symmetry_equiv_pos_as_xyz
  1  'x, y, z'
loop_
 _atom_site_type_symbol
 _atom_site_label
 _atom_site_symmetry_multiplicity
 _atom_site_fract_x
 _atom_site_fract_y
 _atom_site_fract_z
 _atom_site_occupancy
  C  C1  1  0.552300  0.344000  0.113700  1
  C  C2  1  0.782500  0.328400  0.204500  1
  C  C3  1  0.490400  0.285100  0.219900  1
  C  C4  1  0.580600  0.181000  0.134300  1
  C  C5  1  0.530300  0.389500  0.080000  1
  C  C6  1  0.884000  0.326100  0.167500  1
  C  C7  1  0.488900  0.365500  0.247200  1
  C  C8  1  0.596700  0.170700  0.075800  1
  C  C9  1  0.513100  0.444900  0.040060  1
  C  C10  1  1.025300  0.370500  0.193900  1
  C  C11  1  0.395200  0.366100  0.288200  1
  C  C12  1  0.589600  0.088400  0.049500  1
  C  C13  1  0.392200  0.449800  0.011100  1
  C  C14  1  0.632300  0.500300  0.031300  1
  C  C15  1  1.125900  0.360900  0.156400  1
  C  C16  1  0.381300  0.446900  0.308500  1
  C  C17  1  0.712000  0.059300  0.069400  1
  C  C18  1  0.367700  0.499700  -0.031300  1
  C  C19  1  0.607800  0.550200  -0.011100  1
  C  C20  1  0.773600  0.507300  0.053600  1
  C  C21  1  0.486900  0.555100  -0.040060  1
  C  C22  1  0.226400  0.492700  -0.053600  1
  C  C23  1  0.146700  0.438400  -0.031500  1
  C  C24  1  0.853300  0.561600  0.031500  1
  C  C25  1  0.469700  0.610500  -0.080000  1
  C  C26  1  -0.000900  0.415800  -0.045700  1
  C  C27  1  1.000900  0.584200  0.045700  1
  C  C28  1  0.447700  0.656000  -0.113700  1
  C  C29  1  -0.082800  0.364400  -0.024000  1
  C  C30  1  1.082800  0.635600  0.024000  1
  C  C31  1  -0.225800  0.357000  -0.048700  1
  C  C32  1  -0.245400  0.407600  -0.090700  1
  C  C33  1  1.225800  0.643000  0.048700  1
  C  C34  1  1.245400  0.592400  0.090700  1
  C  C35  1  0.217500  0.671600  -0.204500  1
  C  C36  1  0.509600  0.714900  -0.219900  1
  C  C37  1  0.419400  0.819000  -0.134300  1
  C  C38  1  -0.337100  0.310000  -0.036400  1
  C  C39  1  -0.376600  0.411500  -0.121200  1
  C  C40  1  1.337100  0.690000  0.036400  1
  C  C41  1  1.376600  0.588500  0.121200  1
  C  C42  1  0.116000  0.673900  -0.167500  1
  C  C43  1  0.511100  0.634500  -0.247200  1
  C  C44  1  0.403300  0.829300  -0.075800  1
  C  C45  1  -0.465500  0.313800  -0.066100  1
  C  C46  1  -0.487700  0.363600  -0.108400  1
  C  C47  1  1.465500  0.686200  0.066100  1
  C  C48  1  1.487700  0.636400  0.108400  1
  C  C49  1  -0.025300  0.629500  -0.193900  1
  C  C50  1  0.604800  0.633900  -0.288200  1
  C  C51  1  0.410400  0.911600  -0.049500  1
  C  C52  1  -0.631300  0.357100  -0.133400  1
  C  C53  1  1.631300  0.642900  0.133400  1
  C  C54  1  -0.125900  0.639100  -0.156400  1
  C  C55  1  0.618700  0.553100  -0.308500  1
  C  C56  1  0.288000  0.940700  -0.069400  1
  C  C57  1  -0.705000  0.305300  -0.109600  1
  C  C58  1  1.705000  0.694700  0.109600  1
  C  C59  1  -0.104200  0.138300  -0.205500  1
  C  C60  1  0.026800  0.128500  -0.085300  1
  C  C61  1  -0.156200  -0.014100  -0.165800  1
  C  C62  1  -0.279800  0.115400  -0.120300  1
  C  C63  1  -0.097200  0.165000  -0.249600  1
  C  C64  1  0.038800  0.086500  -0.034200  1
  C  C65  1  -0.064200  -0.042900  -0.196700  1
  C  C66  1  -0.413900  0.093000  -0.163500  1
  C  C67  1  -0.110900  0.192300  -0.307500  1
  C  C68  1  0.174000  0.115100  0.014200  1
  C  C69  1  -0.086500  -0.127700  -0.216300  1
  C  C70  1  -0.532900  0.116000  -0.148600  1
  C  C71  1  0.014500  0.224400  -0.318600  1
  C  C72  1  -0.230600  0.186900  -0.348800  1
  C  C73  1  0.155600  0.182500  0.047200  1
  C  C74  1  -0.003900  -0.153500  -0.249800  1
  C  C75  1  -0.662700  0.092300  -0.190000  1
  C  C76  1  0.018300  0.251000  -0.372000  1
  C  C77  1  -0.227800  0.213100  -0.402100  1
  C  C78  1  -0.368500  0.155300  -0.344700  1
  C  C79  1  0.152900  0.282300  -0.377400  1
  C  C80  1  -0.104000  0.245200  -0.415700  1
  C  C81  1  0.248300  0.279900  -0.329390  1
  C  C82  1  -0.461600  0.157700  -0.391700  1
  C  C83  1  -0.116600  0.264500  -0.469900  1
  C  C84  1  0.394700  0.301400  -0.318800  1
  C  C85  1  -0.606300  0.130500  -0.396800  1
  C  C86  1  -0.117800  0.280300  -0.517900  1
  C  C87  1  0.468600  0.335400  -0.352600  1
  C  C88  1  -0.677400  0.092800  -0.363200  1
  C  C89  1  0.613000  0.354900  -0.329900  1
  C  C90  1  0.644200  0.332800  -0.274500  1
  C  C91  1  -0.822600  0.074400  -0.385500  1
  C  C92  1  -0.856800  0.101400  -0.439100  1
  C  C93  1  0.057300  0.333333  -0.598000  1
  C  C94  1  -0.221000  0.384400  -0.602400  1
  C  C95  1  -0.188200  0.218100  -0.641800  1
  C  C96  1  0.717200  0.389500  -0.354200  1
  C  C97  1  0.778400  0.348900  -0.241300  1
  C  C98  1  -0.925500  0.036000  -0.362000  1
  C  C99  1  -0.992500  0.091000  -0.469800  1
  C  C100  1  0.146100  0.267500  -0.581100  1
  C  C101  1  -0.172300  0.453100  -0.552400  1
  C  C102  1  -0.327600  0.181600  -0.641900  1
  C  C103  1  0.849400  0.404400  -0.321900  1
  C  C104  1  0.881200  0.386600  -0.265400  1
  C  C105  1  -1.058800  0.025500  -0.392100  1
  C  C106  1  -1.093500  0.052400  -0.445500  1
  C  C107  1  0.272700  0.250200  -0.593100  1
  C  C108  1  -0.269000  0.510600  -0.557400  1
  C  C109  1  -0.364200  0.110300  -0.693000  1
  C  C110  1  1.026900  0.408200  -0.241800  1
  C  C111  1  -1.238900  0.033500  -0.467400  1
  C  C112  1  0.403600  0.286900  -0.553000  1
  C  C113  1  -0.378000  0.499800  -0.531000  1
  C  C114  1  -0.505200  0.077500  -0.691900  1
  C  C115  1  1.092600  0.440100  -0.278600  1
  C  C116  1  -1.302700  -0.003600  -0.432100  1
  C  C117  1  1.104200  0.861700  0.205500  1
  C  C118  1  0.973200  0.871500  0.085300  1
  C  C119  1  1.156200  1.014100  0.165800  1
  C  C120  1  1.279800  0.884600  0.120300  1
  C  C121  1  1.097200  0.835000  0.249600  1
  C  C122  1  0.961200  0.913500  0.034200  1
  C  C123  1  1.064200  1.042900  0.196700  1
  C  C124  1  1.413900  0.907000  0.163500  1
  C  C125  1  1.110900  0.807700  0.307500  1
  C  C126  1  0.826000  0.884900  -0.014200  1
  C  C127  1  1.086500  1.127700  0.216300  1
  C  C128  1  1.532900  0.884000  0.148600  1
  C  C129  1  0.985500  0.775600  0.318600  1
  C  C130  1  1.230600  0.813100  0.348800  1
  C  C131  1  0.844400  0.817500  -0.047200  1
  C  C132  1  1.003900  1.153500  0.249800  1
  C  C133  1  1.662700  0.907700  0.190000  1
  C  C134  1  0.981700  0.749000  0.372000  1
  C  C135  1  1.227800  0.786900  0.402100  1
  C  C136  1  1.368500  0.844700  0.344700  1
  C  C137  1  0.847100  0.717700  0.377400  1
  C  C138  1  1.104000  0.754800  0.415700  1
  C  C139  1  0.751700  0.720100  0.329390  1
  C  C140  1  1.461600  0.842300  0.391700  1
  C  C141  1  1.116600  0.735500  0.469900  1
  C  C142  1  0.605300  0.698600  0.318800  1
  C  C143  1  1.606300  0.869500  0.396800  1
  C  C144  1  1.117800  0.719700  0.517900  1
  C  C145  1  0.531400  0.664600  0.352600  1
  C  C146  1  1.677400  0.907200  0.363200  1
  C  C147  1  0.387000  0.645100  0.329900  1
  C  C148  1  0.355800  0.667200  0.274500  1
  C  C149  1  1.822600  0.925600  0.385500  1
  C  C150  1  1.856800  0.898600  0.439100  1
  C  C151  1  0.942700  0.666667  0.598000  1
  C  C152  1  1.221000  0.615600  0.602400  1
  C  C153  1  1.188200  0.781900  0.641800  1
  C  C154  1  0.282800  0.610500  0.354200  1
  C  C155  1  0.221600  0.651100  0.241300  1
  C  C156  1  1.925500  0.964000  0.362000  1
  C  C157  1  1.992500  0.909000  0.469800  1
  C  C158  1  0.853900  0.732500  0.581100  1
  C  C159  1  1.172300  0.546900  0.552400  1
  C  C160  1  1.327600  0.818400  0.641900  1
  C  C161  1  0.150600  0.595600  0.321900  1
  C  C162  1  0.118800  0.613400  0.265400  1
  C  C163  1  2.058800  0.974500  0.392100  1
  C  C164  1  2.093500  0.947600  0.445500  1
  C  C165  1  0.727300  0.749800  0.593100  1
  C  C166  1  1.269000  0.489400  0.557400  1
  C  C167  1  1.364200  0.889700  0.693000  1
  C  C168  1  -0.026900  0.591800  0.241800  1
  C  C169  1  2.238900  0.966500  0.467400  1
  C  C170  1  0.596400  0.713100  0.553000  1
  C  C171  1  1.378000  0.500200  0.531000  1
  C  C172  1  1.505200  0.922500  0.691900  1
  C  C173  1  -0.092600  0.559900  0.278600  1
  C  C174  1  2.302700  1.003600  0.432100  1
  F  F175  1  -0.842000  0.283700  -0.121800  1
  F  F176  1  1.842000  0.716300  0.121800  1
  F  F177  1  1.227100  0.468100  -0.271000  1
  F  F178  1  -1.438500  -0.030000  -0.440600  1
  F  F179  1  -0.227100  0.531900  0.271000  1
  F  F180  1  2.438500  1.030000  0.440600  1
  H  H181  1  0.785500  0.383000  0.218200  1
  H  H182  1  0.810800  0.302000  0.238400  1
  H  H183  1  0.395800  0.260500  0.199900  1
  H  H184  1  0.519600  0.253600  0.250600  1
  H  H185  1  0.647700  0.155800  0.157900  1
  H  H186  1  0.488400  0.152800  0.135500  1
  H  H187  1  0.850300  0.347000  0.131500  1
  H  H188  1  0.889100  0.271500  0.157600  1
  H  H189  1  0.583000  0.390000  0.267800  1
  H  H190  1  0.460600  0.397400  0.216600  1
  H  H191  1  0.686000  0.202000  0.073900  1
  H  H192  1  0.524900  0.192300  0.051600  1
  H  H193  1  1.057400  0.352500  0.231300  1
  H  H194  1  1.022500  0.426000  0.200800  1
  H  H195  1  0.430700  0.340700  0.321700  1
  H  H196  1  0.303600  0.335600  0.269300  1
  H  H197  1  0.511000  0.053900  0.058700  1
  H  H198  1  0.573200  0.087000  0.007500  1
  H  H199  1  1.139400  0.307400  0.154100  1
  H  H200  1  1.213500  0.395900  0.172800  1
  H  H201  1  1.089800  0.373300  0.118000  1
  H  H202  1  0.472200  0.478600  0.324400  1
  H  H203  1  0.327300  0.444400  0.338000  1
  H  H204  1  0.335300  0.469900  0.276200  1
  H  H205  1  0.792200  0.098400  0.068000  1
  H  H206  1  0.710800  0.012100  0.045000  1
  H  H207  1  0.716300  0.047700  0.108800  1
  H  H208  1  0.809600  0.476800  0.081500  1
  H  H209  1  0.190400  0.523200  -0.081500  1
  H  H210  1  -0.049500  0.335200  0.005300  1
  H  H211  1  1.049500  0.664800  -0.005300  1
  H  H212  1  0.214500  0.617000  -0.218200  1
  H  H213  1  0.189200  0.698000  -0.238400  1
  H  H214  1  0.604200  0.739500  -0.199900  1
  H  H215  1  0.480400  0.746400  -0.250600  1
  H  H216  1  0.352300  0.844200  -0.157900  1
  H  H217  1  0.511600  0.847200  -0.135500  1
  H  H218  1  -0.325300  0.275700  -0.008100  1
  H  H219  1  -0.388900  0.445700  -0.149500  1
  H  H220  1  1.325300  0.724300  0.008100  1
  H  H221  1  1.388900  0.554300  0.149500  1
  H  H222  1  0.149700  0.653000  -0.131500  1
  H  H223  1  0.110900  0.728500  -0.157600  1
  H  H224  1  0.417000  0.610000  -0.267800  1
  H  H225  1  0.539400  0.602600  -0.216600  1
  H  H226  1  0.314000  0.798000  -0.073900  1
  H  H227  1  0.475100  0.807700  -0.051600  1
  H  H228  1  -0.057400  0.647500  -0.231300  1
  H  H229  1  -0.022500  0.574000  -0.200800  1
  H  H230  1  0.569300  0.659300  -0.321700  1
  H  H231  1  0.696400  0.664400  -0.269300  1
  H  H232  1  0.489000  0.946100  -0.058700  1
  H  H233  1  0.426800  0.913000  -0.007500  1
  H  H234  1  -0.667100  0.385800  -0.162600  1
  H  H235  1  1.667100  0.614200  0.162600  1
  H  H236  1  -0.139400  0.692600  -0.154100  1
  H  H237  1  -0.213500  0.604100  -0.172800  1
  H  H238  1  -0.089800  0.626700  -0.118000  1
  H  H239  1  0.527800  0.521400  -0.324400  1
  H  H240  1  0.672700  0.555600  -0.338000  1
  H  H241  1  0.664700  0.530100  -0.276200  1
  H  H242  1  0.207800  0.901600  -0.068000  1
  H  H243  1  0.289200  0.987900  -0.045000  1
  H  H244  1  0.283700  0.952300  -0.108800  1
  H  H245  1  0.108900  0.127500  -0.101300  1
  H  H246  1  0.026500  0.183200  -0.073200  1
  H  H247  1  -0.155400  -0.041400  -0.131400  1
  H  H248  1  -0.249600  -0.029400  -0.190000  1
  H  H249  1  -0.290500  0.090700  -0.085500  1
  H  H250  1  -0.261600  0.172000  -0.109600  1
  H  H251  1  0.032800  0.031200  -0.046900  1
  H  H252  1  -0.040800  0.090300  -0.017100  1
  H  H253  1  0.029000  -0.027600  -0.172400  1
  H  H254  1  -0.064800  -0.015300  -0.230900  1
  H  H255  1  -0.400900  0.114900  -0.199000  1
  H  H256  1  -0.434300  0.036000  -0.172300  1
  H  H257  1  0.189100  0.074000  0.039000  1
  H  H258  1  0.254300  0.128100  -0.003100  1
  H  H259  1  -0.077400  -0.155200  -0.181900  1
  H  H260  1  -0.182400  -0.144200  -0.237900  1
  H  H261  1  -0.513800  0.173000  -0.140900  1
  H  H262  1  -0.544700  0.095300  -0.112500  1
  H  H263  1  0.152900  0.225100  0.023500  1
  H  H264  1  0.231900  0.197700  0.080500  1
  H  H265  1  0.069600  0.170700  0.060000  1
  H  H266  1  -0.023100  -0.134600  -0.287200  1
  H  H267  1  -0.022300  -0.210100  -0.254700  1
  H  H268  1  0.092300  -0.133900  -0.231100  1
  H  H269  1  -0.654500  0.113300  -0.225900  1
  H  H270  1  -0.734400  0.112000  -0.175000  1
  H  H271  1  -0.686400  0.035700  -0.196800  1
  H  H272  1  -0.390700  0.134800  -0.311700  1
  H  H273  1  0.173900  0.302600  -0.410600  1
  H  H274  1  0.428300  0.346100  -0.389500  1
  H  H275  1  -0.635600  0.079200  -0.327500  1
  H  H276  1  0.056800  0.342000  -0.638200  1
  H  H277  1  0.102000  0.382400  -0.573600  1
  H  H278  1  -0.211900  0.404400  -0.639000  1
  H  H279  1  -0.318700  0.361900  -0.605200  1
  H  H280  1  -0.184400  0.231700  -0.680700  1
  H  H281  1  -0.128600  0.180100  -0.633100  1
  H  H282  1  0.698300  0.402700  -0.392100  1
  H  H283  1  0.798200  0.334500  -0.203800  1
  H  H284  1  -0.904500  0.017300  -0.326000  1
  H  H285  1  -1.014300  0.109600  -0.505800  1
  H  H286  1  0.162700  0.272400  -0.538900  1
  H  H287  1  0.079500  0.218400  -0.594400  1
  H  H288  1  -0.168100  0.432000  -0.515300  1
  H  H289  1  -0.079200  0.480400  -0.553200  1
  H  H290  1  -0.390300  0.218300  -0.649700  1
  H  H291  1  -0.333800  0.162400  -0.604700  1
  H  H292  1  0.278800  0.264900  -0.631500  1
  H  H293  1  0.265500  0.193500  -0.595200  1
  H  H294  1  -0.213500  0.562600  -0.542600  1
  H  H295  1  -0.306600  0.511400  -0.598600  1
  H  H296  1  -0.357000  0.128900  -0.730200  1
  H  H297  1  -0.304200  0.072400  -0.684800  1
  H  H298  1  1.069700  0.400200  -0.204500  1
  H  H299  1  -1.283500  0.046300  -0.503000  1
  H  H300  1  0.479800  0.270000  -0.566400  1
  H  H301  1  0.415400  0.343200  -0.551300  1
  H  H302  1  0.402000  0.271500  -0.514800  1
  H  H303  1  -0.429400  0.541000  -0.538200  1
  H  H304  1  -0.437100  0.449600  -0.546200  1
  H  H305  1  -0.343500  0.501100  -0.489800  1
  H  H306  1  -0.539900  0.033100  -0.721400  1
  H  H307  1  -0.509200  0.060700  -0.654300  1
  H  H308  1  -0.561600  0.116700  -0.699300  1
  H  H309  1  0.891100  0.872500  0.101300  1
  H  H310  1  0.973500  0.816800  0.073200  1
  H  H311  1  1.155400  1.041400  0.131400  1
  H  H312  1  1.249600  1.029400  0.190000  1
  H  H313  1  1.290500  0.909300  0.085500  1
  H  H314  1  1.261600  0.828000  0.109600  1
  H  H315  1  0.967200  0.968800  0.046900  1
  H  H316  1  1.040800  0.909700  0.017100  1
  H  H317  1  0.971000  1.027600  0.172400  1
  H  H318  1  1.064800  1.015300  0.230900  1
  H  H319  1  1.400900  0.885100  0.199000  1
  H  H320  1  1.434300  0.964000  0.172300  1
  H  H321  1  0.810900  0.926000  -0.039000  1
  H  H322  1  0.745700  0.871900  0.003100  1
  H  H323  1  1.077400  1.155200  0.181900  1
  H  H324  1  1.182400  1.144200  0.237900  1
  H  H325  1  1.513800  0.827000  0.140900  1
  H  H326  1  1.544700  0.904700  0.112500  1
  H  H327  1  0.847100  0.774900  -0.023500  1
  H  H328  1  0.768100  0.802300  -0.080500  1
  H  H329  1  0.930400  0.829300  -0.060000  1
  H  H330  1  1.023100  1.134600  0.287200  1
  H  H331  1  1.022300  1.210100  0.254700  1
  H  H332  1  0.907700  1.133900  0.231100  1
  H  H333  1  1.654500  0.886700  0.225900  1
  H  H334  1  1.734400  0.888000  0.175000  1
  H  H335  1  1.686400  0.964300  0.196800  1
  H  H336  1  1.390700  0.865200  0.311700  1
  H  H337  1  0.826100  0.697400  0.410600  1
  H  H338  1  0.571700  0.653900  0.389500  1
  H  H339  1  1.635600  0.920800  0.327500  1
  H  H340  1  0.943200  0.658000  0.638200  1
  H  H341  1  0.898000  0.617600  0.573600  1
  H  H342  1  1.211900  0.595600  0.639000  1
  H  H343  1  1.318700  0.638100  0.605200  1
  H  H344  1  1.184400  0.768300  0.680700  1
  H  H345  1  1.128600  0.819900  0.633100  1
  H  H346  1  0.301700  0.597300  0.392100  1
  H  H347  1  0.201800  0.665500  0.203800  1
  H  H348  1  1.904500  0.982700  0.326000  1
  H  H349  1  2.014300  0.890400  0.505800  1
  H  H350  1  0.837300  0.727600  0.538900  1
  H  H351  1  0.920500  0.781600  0.594400  1
  H  H352  1  1.168100  0.568000  0.515300  1
  H  H353  1  1.079200  0.519600  0.553200  1
  H  H354  1  1.390300  0.781700  0.649700  1
  H  H355  1  1.333800  0.837600  0.604700  1
  H  H356  1  0.721200  0.735100  0.631500  1
  H  H357  1  0.734500  0.806500  0.595200  1
  H  H358  1  1.213500  0.437400  0.542600  1
  H  H359  1  1.306600  0.488600  0.598600  1
  H  H360  1  1.357000  0.871100  0.730200  1
  H  H361  1  1.304200  0.927600  0.684800  1
  H  H362  1  -0.069700  0.599800  0.204500  1
  H  H363  1  2.283500  0.953700  0.503000  1
  H  H364  1  0.520200  0.730000  0.566400  1
  H  H365  1  0.584600  0.656800  0.551300  1
  H  H366  1  0.598000  0.728500  0.514800  1
  H  H367  1  1.429400  0.459000  0.538200  1
  H  H368  1  1.437100  0.550400  0.546200  1
  H  H369  1  1.343500  0.498900  0.489800  1
  H  H370  1  1.539900  0.966900  0.721400  1
  H  H371  1  1.509200  0.939300  0.654300  1
  H  H372  1  1.561600  0.883300  0.699300  1
  S  S373  1  0.240730  0.394500  0.019960  1
  S  S374  1  0.759270  0.605500  -0.019960  1
  S  S375  1  -0.092200  0.460450  -0.098630  1
  S  S376  1  1.092200  0.539550  0.098630  1
  S  S377  1  -0.620200  0.260750  -0.058000  1
  S  S378  1  1.620200  0.739250  0.058000  1
  S  S379  1  0.175300  0.238700  -0.277040  1
  S  S380  1  -0.387820  0.198810  -0.444880  1
  S  S381  1  0.497300  0.291200  -0.253430  1
  S  S382  1  -0.712200  0.147120  -0.459430  1
  S  S383  1  0.995400  0.449700  -0.342200  1
  S  S384  1  -1.203310  -0.020630  -0.370260  1
  S  S385  1  0.824700  0.761300  0.277040  1
  S  S386  1  1.387820  0.801190  0.444880  1
  S  S387  1  0.502700  0.708800  0.253430  1
  S  S388  1  1.712200  0.852880  0.459430  1
  S  S389  1  0.004600  0.550300  0.342200  1
  S  S390  1  2.203310  1.020630  0.370260  1
  Si  Si391  1  0.601470  0.282570  0.168980  1.0
  Si  Si392  1  0.398530  0.717430  -0.168980  1
  Si  Si393  1  -0.126600  0.089870  -0.142510  1.0
  Si  Si394  1  -0.117300  0.307200  -0.589800  1
  Si  Si395  1  1.126600  0.910130  0.142510  1.0
  Si  Si396  1  1.117300  0.692800  0.589800  1
