# generated using pymatgen
data_SiH27C21S
_symmetry_space_group_name_H-M   'P 1'
_cell_length_a   8.30390000
_cell_length_b   10.63990000
_cell_length_c   11.16450000
_cell_angle_alpha   97.48210000
_cell_angle_beta   99.47330000
_cell_angle_gamma   95.19980000
_symmetry_Int_Tables_number   1
_chemical_formula_structural   SiH27C21S
_chemical_formula_sum   'Si2 H54 C42 S2'
_cell_volume   958.32281861
_cell_formula_units_Z   2
loop_
 _symmetry_equiv_pos_site_id
 _symmetry_equiv_pos_as_xyz
  1  'x, y, z'
loop_
 _atom_site_type_symbol
 _atom_site_label
 _atom_site_symmetry_multiplicity
 _atom_site_fract_x
 _atom_site_fract_y
 _atom_site_fract_z
 _atom_site_occupancy
  C  C1  1  0.381800  0.803300  0.331100  1
  C  C2  1  0.146600  1.004500  0.313500  1
  C  C3  1  0.514600  1.067900  0.307700  1
  C  C4  1  0.289400  0.905100  0.088300  1
  C  C5  1  0.419200  0.716100  0.385300  1
  C  C6  1  0.176100  1.071000  0.444200  1
  C  C7  1  0.663700  1.033700  0.251800  1
  C  C8  1  0.150400  0.804800  0.033200  1
  C  C9  1  0.461400  0.608600  0.445500  1
  C  C10  1  0.600500  0.549400  0.421000  1
  C  C11  1  0.361200  0.562900  0.524200  1
  C  C12  1  0.698000  0.596000  0.338000  1
  C  C13  1  0.638800  0.437100  0.475800  1
  C  C14  1  0.399500  0.450600  0.579000  1
  C  C15  1  0.229000  0.625000  0.554000  1
  C  C16  1  0.832000  0.539000  0.317000  1
  C  C17  1  0.538600  0.391400  0.554500  1
  C  C18  1  0.771000  0.375000  0.446000  1
  C  C19  1  0.302000  0.404000  0.662000  1
  C  C20  1  0.133000  0.574000  0.633000  1
  C  C21  1  0.867000  0.426000  0.367000  1
  C  C22  1  0.580800  0.283900  0.614700  1
  C  C23  1  0.168000  0.461000  0.683000  1
  C  C24  1  -0.012200  0.613600  0.685800  1
  C  C25  1  1.012200  0.386400  0.314200  1
  C  C26  1  1.064000  0.463000  0.236000  1
  C  C27  1  0.618200  0.196700  0.668900  1
  C  C28  1  -0.064000  0.537000  0.764000  1
  C  C29  1  1.203400  0.451200  0.163100  1
  C  C30  1  -0.203400  0.548800  0.836900  1
  C  C31  1  1.296100  0.335400  0.179300  1
  C  C32  1  0.853400  -0.004500  0.686500  1
  C  C33  1  0.485400  -0.067900  0.692300  1
  C  C34  1  0.710600  0.094900  0.911700  1
  C  C35  1  -0.296100  0.664600  0.820700  1
  C  C36  1  1.446200  0.334700  0.108100  1
  C  C37  1  0.823900  -0.071000  0.555800  1
  C  C38  1  0.336300  -0.033700  0.748200  1
  C  C39  1  0.849600  0.195200  0.966800  1
  C  C40  1  -0.446200  0.665300  0.891900  1
  C  C41  1  1.389400  0.322500  -0.026700  1
  C  C42  1  -0.389400  0.677500  1.026700  1
  H  H43  1  0.102900  1.064500  0.259000  1
  H  H44  1  0.060600  0.931500  0.304900  1
  H  H45  1  0.484100  1.150200  0.284000  1
  H  H46  1  0.545400  1.079700  0.398300  1
  H  H47  1  0.267700  0.984200  0.053700  1
  H  H48  1  0.390500  0.877500  0.061900  1
  H  H49  1  0.210300  1.010700  0.500100  1
  H  H50  1  0.074600  1.103000  0.462700  1
  H  H51  1  0.262700  1.142600  0.454900  1
  H  H52  1  0.689300  0.949000  0.268900  1
  H  H53  1  0.758200  1.096900  0.287700  1
  H  H54  1  0.639200  1.033200  0.162800  1
  H  H55  1  0.177000  0.722500  0.056600  1
  H  H56  1  0.132100  0.799000  -0.056400  1
  H  H57  1  0.050700  0.827200  0.063200  1
  H  H58  1  0.668500  0.666000  0.298100  1
  H  H59  1  0.204800  0.701300  0.522100  1
  H  H60  1  0.795200  0.298700  0.477900  1
  H  H61  1  0.331500  0.334000  0.701900  1
  H  H62  1  -0.064500  0.686000  0.666300  1
  H  H63  1  1.064500  0.314000  0.333700  1
  H  H64  1  1.157800  0.447400  0.074800  1
  H  H65  1  1.282700  0.529200  0.188100  1
  H  H66  1  -0.157800  0.552600  0.925200  1
  H  H67  1  -0.282700  0.470800  0.811900  1
  H  H68  1  1.219700  0.256600  0.148500  1
  H  H69  1  1.337100  0.335700  0.267800  1
  H  H70  1  0.897100  -0.064500  0.741000  1
  H  H71  1  0.939400  0.068500  0.695100  1
  H  H72  1  0.515900  -0.150200  0.716000  1
  H  H73  1  0.454600  -0.079700  0.601700  1
  H  H74  1  0.732300  0.015800  0.946300  1
  H  H75  1  0.609500  0.122500  0.938100  1
  H  H76  1  -0.219700  0.743400  0.851500  1
  H  H77  1  -0.337100  0.664300  0.732200  1
  H  H78  1  1.520700  0.414800  0.136700  1
  H  H79  1  1.508800  0.262600  0.126800  1
  H  H80  1  0.789700  -0.010700  0.499900  1
  H  H81  1  0.925400  -0.103000  0.537300  1
  H  H82  1  0.737300  -0.142600  0.545100  1
  H  H83  1  0.310700  0.051000  0.731100  1
  H  H84  1  0.241800  -0.096900  0.712300  1
  H  H85  1  0.360800  -0.033200  0.837200  1
  H  H86  1  0.823000  0.277500  0.943400  1
  H  H87  1  0.867900  0.201000  1.056400  1
  H  H88  1  0.949300  0.172800  0.936800  1
  H  H89  1  -0.520700  0.585200  0.863300  1
  H  H90  1  -0.508800  0.737400  0.873200  1
  H  H91  1  1.314400  0.243800  -0.054900  1
  H  H92  1  1.484400  0.319700  -0.068400  1
  H  H93  1  1.332000  0.395900  -0.045700  1
  H  H94  1  -0.314400  0.756200  1.054900  1
  H  H95  1  -0.484400  0.680300  1.068400  1
  H  H96  1  -0.332000  0.604100  1.045700  1
  S  S97  1  0.960600  0.589880  0.220720  1
  S  S98  1  0.039400  0.410120  0.779280  1
  Si  Si99  1  0.330640  0.944070  0.258530  1.0
  Si  Si100  1  0.669360  0.055930  0.741470  1
