# generated using pymatgen
data_SiH31C23S
_symmetry_space_group_name_H-M   'P 1'
_cell_length_a   9.69790000
_cell_length_b   10.27420000
_cell_length_c   11.44370000
_cell_angle_alpha   106.97810000
_cell_angle_beta   100.71430000
_cell_angle_gamma   90.55830000
_symmetry_Int_Tables_number   1
_chemical_formula_structural   SiH31C23S
_chemical_formula_sum   'Si2 H62 C46 S2'
_cell_volume   1069.03184403
_cell_formula_units_Z   2
loop_
 _symmetry_equiv_pos_site_id
 _symmetry_equiv_pos_as_xyz
  1  'x, y, z'
loop_
 _atom_site_type_symbol
 _atom_site_label
 _atom_site_symmetry_multiplicity
 _atom_site_fract_x
 _atom_site_fract_y
 _atom_site_fract_z
 _atom_site_occupancy
  C  C1  1  0.617800  0.217000  0.176200  1
  C  C2  1  0.515400  -0.036200  0.220900  1
  C  C3  1  0.735500  0.186100  0.425300  1
  C  C4  1  0.820000  0.002300  0.189400  1
  C  C5  1  0.582200  0.300300  0.123600  1
  C  C6  1  0.383100  0.027100  0.260900  1
  C  C7  1  0.550300  -0.156200  0.270600  1
  C  C8  1  0.624400  0.268100  0.487500  1
  C  C9  1  0.808700  0.097200  0.503300  1
  C  C10  1  0.951500  0.097700  0.216700  1
  C  C11  1  0.775500  -0.068100  0.048300  1
  C  C12  1  0.540100  0.400600  0.060100  1
  C  C13  1  0.626500  0.431900  -0.016500  1
  C  C14  1  0.414500  0.465500  0.077900  1
  C  C15  1  0.750400  0.365700  -0.035000  1
  C  C16  1  0.585500  0.534500  -0.077900  1
  C  C17  1  0.373500  0.568100  0.016500  1
  C  C18  1  0.327100  0.434500  0.153100  1
  C  C19  1  0.832300  0.398100  -0.109900  1
  C  C20  1  0.459900  0.599400  -0.060100  1
  C  C21  1  0.672900  0.565500  -0.153100  1
  C  C22  1  0.249600  0.634300  0.035000  1
  C  C23  1  0.206800  0.497700  0.167600  1
  C  C24  1  0.793200  0.502300  -0.167600  1
  C  C25  1  0.417800  0.699700  -0.123600  1
  C  C26  1  0.167700  0.601900  0.109900  1
  C  C27  1  0.097700  0.497500  0.237200  1
  C  C28  1  0.902300  0.502500  -0.237200  1
  C  C29  1  1.019700  0.427000  -0.219000  1
  C  C30  1  0.382200  0.783000  -0.176200  1
  C  C31  1  -0.019700  0.573000  0.219000  1
  C  C32  1  1.143000  0.433400  -0.283500  1
  C  C33  1  -0.143000  0.566600  0.283500  1
  C  C34  1  1.127500  0.349700  -0.418300  1
  C  C35  1  0.484600  1.036200  -0.220900  1
  C  C36  1  0.264500  0.813900  -0.425300  1
  C  C37  1  0.180000  0.997700  -0.189400  1
  C  C38  1  -0.127500  0.650300  0.418300  1
  C  C39  1  1.255400  0.340600  -0.479000  1
  C  C40  1  0.616900  0.972900  -0.260900  1
  C  C41  1  0.449700  1.156200  -0.270600  1
  C  C42  1  0.375600  0.731900  -0.487500  1
  C  C43  1  0.191300  0.902800  -0.503300  1
  C  C44  1  0.048500  0.902300  -0.216700  1
  C  C45  1  0.224500  1.068100  -0.048300  1
  C  C46  1  -0.255400  0.659400  0.479000  1
  H  H47  1  0.491200  -0.074700  0.128100  1
  H  H48  1  0.810100  0.255000  0.427100  1
  H  H49  1  0.845800  -0.070700  0.229700  1
  H  H50  1  0.303400  -0.041300  0.227900  1
  H  H51  1  0.363100  0.104600  0.228400  1
  H  H52  1  0.398100  0.058500  0.352100  1
  H  H53  1  0.570800  -0.124500  0.361900  1
  H  H54  1  0.632700  -0.197600  0.240600  1
  H  H55  1  0.470000  -0.224100  0.241300  1
  H  H56  1  0.556600  0.205900  0.501800  1
  H  H57  1  0.575400  0.318400  0.433200  1
  H  H58  1  0.670000  0.332600  0.567400  1
  H  H59  1  0.846900  0.154800  0.588400  1
  H  H60  1  0.885400  0.052700  0.465400  1
  H  H61  1  0.740300  0.027500  0.505600  1
  H  H62  1  1.024900  0.047400  0.178200  1
  H  H63  1  0.985200  0.133500  0.307000  1
  H  H64  1  0.928600  0.173600  0.182400  1
  H  H65  1  0.744600  0.000000  0.006100  1
  H  H66  1  0.698000  -0.136800  0.032800  1
  H  H67  1  0.855600  -0.112400  0.016100  1
  H  H68  1  0.777700  0.297900  0.004500  1
  H  H69  1  0.353100  0.368000  0.194400  1
  H  H70  1  0.646900  0.632000  -0.194400  1
  H  H71  1  0.222300  0.702100  -0.004500  1
  H  H72  1  0.105300  0.446600  0.295100  1
  H  H73  1  0.894700  0.553400  -0.295100  1
  H  H74  1  1.163300  0.529900  -0.277800  1
  H  H75  1  1.226500  0.404600  -0.235400  1
  H  H76  1  -0.163300  0.470100  0.277800  1
  H  H77  1  -0.226500  0.595400  0.235400  1
  H  H78  1  1.052100  0.387000  -0.467800  1
  H  H79  1  1.094400  0.255700  -0.425700  1
  H  H80  1  0.508800  1.074700  -0.128100  1
  H  H81  1  0.189900  0.745000  -0.427100  1
  H  H82  1  0.154200  1.070700  -0.229700  1
  H  H83  1  -0.052100  0.613000  0.467800  1
  H  H84  1  -0.094400  0.744300  0.425700  1
  H  H85  1  1.275500  0.427900  -0.493000  1
  H  H86  1  1.236500  0.268300  -0.559000  1
  H  H87  1  1.336800  0.319600  -0.424200  1
  H  H88  1  0.696600  1.041300  -0.227900  1
  H  H89  1  0.636900  0.895400  -0.228400  1
  H  H90  1  0.601900  0.941500  -0.352100  1
  H  H91  1  0.429200  1.124500  -0.361900  1
  H  H92  1  0.367300  1.197600  -0.240600  1
  H  H93  1  0.530000  1.224100  -0.241300  1
  H  H94  1  0.443400  0.794100  -0.501800  1
  H  H95  1  0.424600  0.681600  -0.433200  1
  H  H96  1  0.330000  0.667400  -0.567400  1
  H  H97  1  0.153100  0.845200  -0.588400  1
  H  H98  1  0.114600  0.947300  -0.465400  1
  H  H99  1  0.259700  0.972500  -0.505600  1
  H  H100  1  -0.024900  0.952600  -0.178200  1
  H  H101  1  0.014800  0.866500  -0.307000  1
  H  H102  1  0.071400  0.826400  -0.182400  1
  H  H103  1  0.255400  1.000000  -0.006100  1
  H  H104  1  0.302000  1.136800  -0.032800  1
  H  H105  1  0.144400  1.112400  -0.016100  1
  H  H106  1  -0.275500  0.572100  0.493000  1
  H  H107  1  -0.236500  0.731700  0.559000  1
  H  H108  1  -0.336800  0.680400  0.424200  1
  S  S109  1  0.989200  0.324000  -0.140400  1
  S  S110  1  0.010800  0.676000  0.140400  1
  Si  Si111  1  0.672790  0.089400  0.256450  1.0
  Si  Si112  1  0.327210  0.910600  -0.256450  1
