# generated using pymatgen
data_SiH12(C7F)2
_symmetry_space_group_name_H-M   'P 1'
_cell_length_a   6.99360000
_cell_length_b   12.69070000
_cell_length_c   14.94440000
_cell_angle_alpha   75.76920000
_cell_angle_beta   89.67400000
_cell_angle_gamma   88.18020000
_symmetry_Int_Tables_number   1
_chemical_formula_structural   SiH12(C7F)2
_chemical_formula_sum   'Si4 H48 C56 F8'
_cell_volume   1285.01711117
_cell_formula_units_Z   4
loop_
 _symmetry_equiv_pos_site_id
 _symmetry_equiv_pos_as_xyz
  1  'x, y, z'
loop_
 _atom_site_type_symbol
 _atom_site_label
 _atom_site_symmetry_multiplicity
 _atom_site_fract_x
 _atom_site_fract_y
 _atom_site_fract_z
 _atom_site_occupancy
  C  C1  1  0.751100  0.799160  0.342510  1
  C  C2  1  0.534000  0.982720  0.217100  1
  C  C3  1  0.968300  0.975700  0.218130  1
  C  C4  1  0.752000  0.807300  0.144360  1
  C  C5  1  0.751500  0.733280  0.415590  1
  C  C6  1  0.751700  0.655770  0.502650  1
  C  C7  1  0.749900  0.542460  0.505610  1
  C  C8  1  0.753200  0.690950  0.584680  1
  C  C9  1  0.748400  0.506940  0.424050  1
  C  C10  1  0.749500  0.464590  0.593450  1
  C  C11  1  0.753300  0.613550  0.672120  1
  C  C12  1  0.754800  0.804670  0.581800  1
  C  C13  1  0.747100  0.396810  0.426300  1
  C  C14  1  0.747500  0.353320  0.594900  1
  C  C15  1  0.750400  0.501670  0.675900  1
  C  C16  1  0.755800  0.653650  0.753360  1
  C  C17  1  0.757300  0.838270  0.661240  1
  C  C18  1  0.746100  0.358370  0.344370  1
  C  C19  1  0.746800  0.318530  0.514160  1
  C  C20  1  0.747000  0.425360  0.764760  1
  C  C21  1  0.757500  0.762070  0.747680  1
  C  C22  1  0.745300  0.251660  0.347650  1
  C  C23  1  0.745900  0.206300  0.512850  1
  C  C24  1  0.743300  0.368380  0.841980  1
  C  C25  1  0.745300  0.174420  0.433840  1
  C  C26  1  0.512700  0.330800  1.017130  1
  C  C27  1  0.942500  0.333600  1.024500  1
  C  C28  1  0.750000  0.145600  0.972350  1
  C  C29  1  1.248900  0.200840  0.657490  1
  C  C30  1  1.466000  0.017280  0.782900  1
  C  C31  1  1.031700  0.024300  0.781870  1
  C  C32  1  1.248000  0.192700  0.855640  1
  C  C33  1  1.248500  0.266720  0.584410  1
  C  C34  1  1.248300  0.344230  0.497350  1
  C  C35  1  1.250100  0.457540  0.494390  1
  C  C36  1  1.246800  0.309050  0.415320  1
  C  C37  1  1.251600  0.493060  0.575950  1
  C  C38  1  1.250500  0.535410  0.406550  1
  C  C39  1  1.246700  0.386450  0.327880  1
  C  C40  1  1.245200  0.195330  0.418200  1
  C  C41  1  1.252900  0.603190  0.573700  1
  C  C42  1  1.252500  0.646680  0.405100  1
  C  C43  1  1.249600  0.498330  0.324100  1
  C  C44  1  1.244200  0.346350  0.246640  1
  C  C45  1  1.242700  0.161730  0.338760  1
  C  C46  1  1.253900  0.641630  0.655630  1
  C  C47  1  1.253200  0.681470  0.485840  1
  C  C48  1  1.253000  0.574640  0.235240  1
  C  C49  1  1.242500  0.237930  0.252320  1
  C  C50  1  1.254700  0.748340  0.652350  1
  C  C51  1  1.254100  0.793700  0.487150  1
  C  C52  1  1.256700  0.631620  0.158020  1
  C  C53  1  1.254700  0.825580  0.566160  1
  C  C54  1  1.487300  0.669200  -0.017130  1
  C  C55  1  1.057500  0.666400  -0.024500  1
  C  C56  1  1.250000  0.854400  0.027650  1
  F  F57  1  0.745740  0.431400  0.262300  1
  F  F58  1  0.744700  0.215240  0.270500  1
  F  F59  1  0.746050  0.131470  0.594190  1
  F  F60  1  0.745700  0.068100  0.433400  1
  F  F61  1  1.254260  0.568600  0.737700  1
  F  F62  1  1.255300  0.784760  0.729500  1
  F  F63  1  1.253950  0.868530  0.405810  1
  F  F64  1  1.254300  0.931900  0.566600  1
  H  H65  1  0.421600  0.938500  0.227000  1
  H  H66  1  0.528700  1.031200  0.155800  1
  H  H67  1  0.537800  1.025200  0.262900  1
  H  H68  1  0.962900  1.018800  0.263500  1
  H  H69  1  0.974600  1.023600  0.156700  1
  H  H70  1  1.081000  0.927700  0.229100  1
  H  H71  1  0.866100  0.760400  0.153400  1
  H  H72  1  0.750700  0.853100  0.082000  1
  H  H73  1  0.639500  0.763100  0.153900  1
  H  H74  1  0.748300  0.558400  0.366800  1
  H  H75  1  0.754200  0.856200  0.524600  1
  H  H76  1  0.746500  0.301500  0.652000  1
  H  H77  1  0.756400  0.604300  0.811700  1
  H  H78  1  0.758800  0.913000  0.658600  1
  H  H79  1  0.758900  0.786700  0.802100  1
  H  H80  1  0.508100  0.408400  1.012900  1
  H  H81  1  0.508400  0.291300  1.081500  1
  H  H82  1  0.404000  0.312300  0.984600  1
  H  H83  1  1.059800  0.322900  0.992400  1
  H  H84  1  0.948800  0.289100  1.087400  1
  H  H85  1  0.927000  0.409500  1.025300  1
  H  H86  1  0.636300  0.125000  0.944700  1
  H  H87  1  0.757900  0.106100  1.036700  1
  H  H88  1  0.862400  0.128200  0.939800  1
  H  H89  1  1.578400  0.061500  0.773000  1
  H  H90  1  1.471300  -0.031200  0.844200  1
  H  H91  1  1.462200  -0.025200  0.737100  1
  H  H92  1  1.037100  -0.018800  0.736500  1
  H  H93  1  1.025400  -0.023600  0.843300  1
  H  H94  1  0.919000  0.072300  0.770900  1
  H  H95  1  1.133900  0.239600  0.846600  1
  H  H96  1  1.249300  0.146900  0.918000  1
  H  H97  1  1.360500  0.236900  0.846100  1
  H  H98  1  1.251700  0.441600  0.633200  1
  H  H99  1  1.245800  0.143800  0.475400  1
  H  H100  1  1.253500  0.698500  0.348000  1
  H  H101  1  1.243600  0.395700  0.188300  1
  H  H102  1  1.241200  0.087000  0.341400  1
  H  H103  1  1.241100  0.213300  0.197900  1
  H  H104  1  1.491900  0.591600  -0.012900  1
  H  H105  1  1.491600  0.708700  -0.081500  1
  H  H106  1  1.596000  0.687700  0.015400  1
  H  H107  1  0.940200  0.677100  0.007600  1
  H  H108  1  1.051200  0.710900  -0.087400  1
  H  H109  1  1.073000  0.590500  -0.025300  1
  H  H110  1  1.363700  0.875000  0.055300  1
  H  H111  1  1.242100  0.893900  -0.036700  1
  H  H112  1  1.137600  0.871800  0.060200  1
  Si  Si113  1  0.751410  0.893620  0.227820  1.0
  Si  Si114  1  0.737000  0.293760  0.964380  1
  Si  Si115  1  1.248590  0.106380  0.772180  1.0
  Si  Si116  1  1.263000  0.706240  0.035620  1
