# generated using pymatgen
data_SiH28C21O
_symmetry_space_group_name_H-M   'P 1'
_cell_length_a   7.65120000
_cell_length_b   11.83100000
_cell_length_c   21.58900000
_cell_angle_alpha   103.31000000
_cell_angle_beta   92.60000000
_cell_angle_gamma   90.83000000
_symmetry_Int_Tables_number   1
_chemical_formula_structural   SiH28C21O
_chemical_formula_sum   'Si4 H112 C84 O4'
_cell_volume   1899.18876863
_cell_formula_units_Z   4
loop_
 _symmetry_equiv_pos_site_id
 _symmetry_equiv_pos_as_xyz
  1  'x, y, z'
loop_
 _atom_site_type_symbol
 _atom_site_label
 _atom_site_symmetry_multiplicity
 _atom_site_fract_x
 _atom_site_fract_y
 _atom_site_fract_z
 _atom_site_occupancy
  C  C1  1  0.691200  0.670710  0.326510  1
  C  C2  1  0.391700  0.746620  0.413670  1
  C  C3  1  0.692600  0.585940  0.444220  1
  C  C4  1  0.416300  0.491270  0.335290  1
  C  C5  1  0.808800  0.697220  0.296540  1
  C  C6  1  0.314500  0.734000  0.476640  1
  C  C7  1  0.469900  0.868870  0.420840  1
  C  C8  1  0.805300  0.690940  0.481070  1
  C  C9  1  0.811100  0.485780  0.415650  1
  C  C10  1  0.335800  0.415890  0.376260  1
  C  C11  1  0.275400  0.520630  0.288800  1
  C  C12  1  0.951300  0.745100  0.268730  1
  C  C13  1  1.027200  0.685680  0.211450  1
  C  C14  1  1.017500  0.855400  0.302300  1
  C  C15  1  0.965900  0.575560  0.176160  1
  C  C16  1  1.177400  0.738980  0.188830  1
  C  C17  1  1.158500  0.910190  0.278350  1
  C  C18  1  0.946800  0.915660  0.360830  1
  C  C19  1  1.048800  0.513700  0.123020  1
  C  C20  1  1.254600  0.676730  0.133190  1
  C  C21  1  1.237700  0.852660  0.222280  1
  C  C22  1  1.215100  1.024580  0.311800  1
  C  C23  1  1.006700  1.023120  0.391730  1
  C  C24  1  0.990800  0.399040  0.089280  1
  C  C25  1  1.197100  0.565550  0.101320  1
  C  C26  1  0.659800  0.547470  0.166030  1
  C  C27  1  1.376900  0.915570  0.201420  1
  C  C28  1  1.141100  1.079140  0.366340  1
  C  C29  1  1.073300  0.342170  0.037420  1
  C  C30  1  1.279100  0.501350  0.046280  1
  C  C31  1  1.353200  0.782040  0.060660  1
  C  C32  1  1.486600  0.981070  0.189400  1
  C  C33  1  1.218900  0.393940  0.015110  1
  C  C34  1  1.792000  0.983760  0.109140  1
  C  C35  1  1.538700  1.189420  0.135440  1
  C  C36  1  1.791900  1.142660  0.245670  1
  C  C37  1  1.958600  1.045610  0.095660  1
  C  C38  1  1.837800  0.870370  0.128530  1
  C  C39  1  1.444400  1.133150  0.071180  1
  C  C40  1  1.407900  1.257220  0.180180  1
  C  C41  1  1.688500  1.159800  0.306700  1
  C  C42  1  1.887600  1.256850  0.243480  1
  C  C43  1  1.308800  0.329290  -0.326510  1
  C  C44  1  1.608300  0.253380  -0.413670  1
  C  C45  1  1.307400  0.414060  -0.444220  1
  C  C46  1  1.583700  0.508730  -0.335290  1
  C  C47  1  1.191200  0.302780  -0.296540  1
  C  C48  1  1.685500  0.266000  -0.476640  1
  C  C49  1  1.530100  0.131130  -0.420840  1
  C  C50  1  1.194700  0.309060  -0.481070  1
  C  C51  1  1.188900  0.514220  -0.415650  1
  C  C52  1  1.664200  0.584110  -0.376260  1
  C  C53  1  1.724600  0.479370  -0.288800  1
  C  C54  1  1.048700  0.254900  -0.268730  1
  C  C55  1  0.972800  0.314320  -0.211450  1
  C  C56  1  0.982500  0.144600  -0.302300  1
  C  C57  1  1.034100  0.424440  -0.176160  1
  C  C58  1  0.822600  0.261020  -0.188830  1
  C  C59  1  0.841500  0.089810  -0.278350  1
  C  C60  1  1.053200  0.084340  -0.360830  1
  C  C61  1  0.951200  0.486300  -0.123020  1
  C  C62  1  0.745400  0.323270  -0.133190  1
  C  C63  1  0.762300  0.147340  -0.222280  1
  C  C64  1  0.784900  -0.024580  -0.311800  1
  C  C65  1  0.993300  -0.023120  -0.391730  1
  C  C66  1  1.009200  0.600960  -0.089280  1
  C  C67  1  0.802900  0.434450  -0.101320  1
  C  C68  1  1.340200  0.452530  -0.166030  1
  C  C69  1  0.623100  0.084430  -0.201420  1
  C  C70  1  0.858900  -0.079140  -0.366340  1
  C  C71  1  0.926700  0.657830  -0.037420  1
  C  C72  1  0.720900  0.498650  -0.046280  1
  C  C73  1  0.646800  0.217960  -0.060660  1
  C  C74  1  0.513400  0.018930  -0.189400  1
  C  C75  1  0.781100  0.606060  -0.015110  1
  C  C76  1  0.208000  0.016240  -0.109140  1
  C  C77  1  0.461300  -0.189420  -0.135440  1
  C  C78  1  0.208100  -0.142660  -0.245670  1
  C  C79  1  0.041400  -0.045610  -0.095660  1
  C  C80  1  0.162200  0.129630  -0.128530  1
  C  C81  1  0.555600  -0.133150  -0.071180  1
  C  C82  1  0.592100  -0.257220  -0.180180  1
  C  C83  1  0.311500  -0.159800  -0.306700  1
  C  C84  1  0.112400  -0.256850  -0.243480  1
  H  H85  1  0.290500  0.739000  0.381900  1
  H  H86  1  0.618400  0.559400  0.475400  1
  H  H87  1  0.502300  0.441700  0.308500  1
  H  H88  1  0.408100  0.744900  0.510200  1
  H  H89  1  0.260800  0.656300  0.470800  1
  H  H90  1  0.225700  0.792700  0.489000  1
  H  H91  1  0.380300  0.926300  0.434700  1
  H  H92  1  0.511500  0.877100  0.379800  1
  H  H93  1  0.568100  0.881600  0.452600  1
  H  H94  1  0.881700  0.667100  0.513200  1
  H  H95  1  0.729000  0.752400  0.502100  1
  H  H96  1  0.876900  0.720200  0.451400  1
  H  H97  1  0.881300  0.508100  0.383300  1
  H  H98  1  0.738800  0.416700  0.395900  1
  H  H99  1  0.888900  0.468500  0.449400  1
  H  H100  1  0.249900  0.460800  0.403500  1
  H  H101  1  0.428300  0.391600  0.403000  1
  H  H102  1  0.277700  0.347000  0.348500  1
  H  H103  1  0.227900  0.448700  0.260600  1
  H  H104  1  0.327400  0.569800  0.263300  1
  H  H105  1  0.181000  0.562100  0.312900  1
  H  H106  1  0.855800  0.879400  0.378400  1
  H  H107  1  1.306200  1.063100  0.295600  1
  H  H108  1  0.958200  1.060900  0.430600  1
  H  H109  1  0.893600  0.362800  0.103500  1
  H  H110  1  0.643700  0.631600  0.175900  1
  H  H111  1  0.563000  0.509600  0.182400  1
  H  H112  1  0.661600  0.518200  0.119800  1
  H  H113  1  1.179900  1.155500  0.387500  1
  H  H114  1  1.033100  0.266500  0.015700  1
  H  H115  1  1.377700  0.534600  0.031200  1
  H  H116  1  1.310900  0.724600  0.022400  1
  H  H117  1  1.457000  0.823200  0.051100  1
  H  H118  1  1.261300  0.837800  0.074400  1
  H  H119  1  1.274300  0.353400  -0.021700  1
  H  H120  1  1.718800  0.962400  0.068400  1
  H  H121  1  1.628600  1.246100  0.127700  1
  H  H122  1  1.884600  1.085600  0.249500  1
  H  H123  1  2.037700  1.062300  0.133800  1
  H  H124  1  1.927900  1.118500  0.084200  1
  H  H125  1  2.016800  0.995500  0.060400  1
  H  H126  1  1.910300  0.823600  0.096500  1
  H  H127  1  1.729900  0.826700  0.131500  1
  H  H128  1  1.902500  0.888500  0.170000  1
  H  H129  1  1.360900  1.073300  0.077000  1
  H  H130  1  1.530400  1.097700  0.040800  1
  H  H131  1  1.381600  1.192600  0.054800  1
  H  H132  1  1.348200  1.312300  0.159400  1
  H  H133  1  1.470100  1.299700  0.219500  1
  H  H134  1  1.321500  1.203100  0.190300  1
  H  H135  1  1.766300  1.193700  0.343800  1
  H  H136  1  1.641800  1.084500  0.310900  1
  H  H137  1  1.591600  1.212100  0.304100  1
  H  H138  1  1.801900  1.317400  0.242900  1
  H  H139  1  1.954500  1.245000  0.205000  1
  H  H140  1  1.967500  1.280900  0.281200  1
  H  H141  1  1.709500  0.261000  -0.381900  1
  H  H142  1  1.381600  0.440600  -0.475400  1
  H  H143  1  1.497700  0.558300  -0.308500  1
  H  H144  1  1.591900  0.255100  -0.510200  1
  H  H145  1  1.739200  0.343700  -0.470800  1
  H  H146  1  1.774300  0.207300  -0.489000  1
  H  H147  1  1.619700  0.073700  -0.434700  1
  H  H148  1  1.488500  0.122900  -0.379800  1
  H  H149  1  1.431900  0.118400  -0.452600  1
  H  H150  1  1.118300  0.332900  -0.513200  1
  H  H151  1  1.271000  0.247600  -0.502100  1
  H  H152  1  1.123100  0.279800  -0.451400  1
  H  H153  1  1.118700  0.491900  -0.383300  1
  H  H154  1  1.261200  0.583300  -0.395900  1
  H  H155  1  1.111100  0.531500  -0.449400  1
  H  H156  1  1.750100  0.539200  -0.403500  1
  H  H157  1  1.571700  0.608400  -0.403000  1
  H  H158  1  1.722300  0.653000  -0.348500  1
  H  H159  1  1.772100  0.551300  -0.260600  1
  H  H160  1  1.672600  0.430200  -0.263300  1
  H  H161  1  1.819000  0.437900  -0.312900  1
  H  H162  1  1.144200  0.120600  -0.378400  1
  H  H163  1  0.693800  -0.063100  -0.295600  1
  H  H164  1  1.041800  -0.060900  -0.430600  1
  H  H165  1  1.106400  0.637200  -0.103500  1
  H  H166  1  1.356300  0.368400  -0.175900  1
  H  H167  1  1.437000  0.490400  -0.182400  1
  H  H168  1  1.338400  0.481800  -0.119800  1
  H  H169  1  0.820100  -0.155500  -0.387500  1
  H  H170  1  0.966900  0.733500  -0.015700  1
  H  H171  1  0.622300  0.465400  -0.031200  1
  H  H172  1  0.689100  0.275400  -0.022400  1
  H  H173  1  0.543000  0.176800  -0.051100  1
  H  H174  1  0.738700  0.162200  -0.074400  1
  H  H175  1  0.725700  0.646600  0.021700  1
  H  H176  1  0.281200  0.037600  -0.068400  1
  H  H177  1  0.371400  -0.246100  -0.127700  1
  H  H178  1  0.115400  -0.085600  -0.249500  1
  H  H179  1  -0.037700  -0.062300  -0.133800  1
  H  H180  1  0.072100  -0.118500  -0.084200  1
  H  H181  1  -0.016800  0.004500  -0.060400  1
  H  H182  1  0.089700  0.176400  -0.096500  1
  H  H183  1  0.270100  0.173300  -0.131500  1
  H  H184  1  0.097500  0.111500  -0.170000  1
  H  H185  1  0.639100  -0.073300  -0.077000  1
  H  H186  1  0.469600  -0.097700  -0.040800  1
  H  H187  1  0.618400  -0.192600  -0.054800  1
  H  H188  1  0.651800  -0.312300  -0.159400  1
  H  H189  1  0.529900  -0.299700  -0.219500  1
  H  H190  1  0.678500  -0.203100  -0.190300  1
  H  H191  1  0.233700  -0.193700  -0.343800  1
  H  H192  1  0.358200  -0.084500  -0.310900  1
  H  H193  1  0.408400  -0.212100  -0.304100  1
  H  H194  1  0.198100  -0.317400  -0.242900  1
  H  H195  1  0.045500  -0.245000  -0.205000  1
  H  H196  1  0.032500  -0.280900  -0.281200  1
  O  O197  1  0.822450  0.522560  0.195410  1
  O  O198  1  1.397680  0.724370  0.110520  1
  O  O199  1  1.177550  0.477440  -0.195410  1
  O  O200  1  0.602320  0.275630  -0.110520  1
  Si  Si201  1  0.542310  0.624330  0.381180  1.0
  Si  Si202  1  1.656070  1.077410  0.170390  1
  Si  Si203  1  1.457690  0.375670  -0.381180  1.0
  Si  Si204  1  0.343930  -0.077410  -0.170390  1
