# generated using pymatgen
data_SiH24(C10F)2
_symmetry_space_group_name_H-M   'P 1'
_cell_length_a   32.07120000
_cell_length_b   14.25990000
_cell_length_c   8.29370000
_cell_angle_alpha   90.00000000
_cell_angle_beta   98.27120000
_cell_angle_gamma   90.00000000
_symmetry_Int_Tables_number   1
_chemical_formula_structural   SiH24(C10F)2
_chemical_formula_sum   'Si8 H192 C160 F16'
_cell_volume   3753.52160433
_cell_formula_units_Z   8
loop_
 _symmetry_equiv_pos_site_id
 _symmetry_equiv_pos_as_xyz
  1  'x, y, z'
loop_
 _atom_site_type_symbol
 _atom_site_label
 _atom_site_symmetry_multiplicity
 _atom_site_fract_x
 _atom_site_fract_y
 _atom_site_fract_z
 _atom_site_occupancy
  C  C1  1  0.107830  0.258020  0.547700  1
  C  C2  1  0.176560  0.387430  0.476500  1
  C  C3  1  0.148530  0.221750  0.248200  1
  C  C4  1  0.194360  0.177500  0.581200  1
  C  C5  1  0.075660  0.256950  0.606100  1
  C  C6  1  0.144550  0.460360  0.409800  1
  C  C7  1  0.130640  0.123700  0.220200  1
  C  C8  1  0.204240  0.199800  0.761400  1
  C  C9  1  0.037540  0.256230  0.677920  1
  C  C10  1  0.159980  0.560420  0.426600  1
  C  C11  1  0.119440  0.097900  0.042000  1
  C  C12  1  0.230710  0.127300  0.862100  1
  C  C13  1  0.018950  0.343310  0.712910  1
  C  C14  1  0.018990  0.171110  0.713630  1
  C  C15  1  0.036480  0.429400  0.675020  1
  C  C16  1  -0.018950  0.343310  0.787090  1
  C  C17  1  -0.018990  0.171110  0.786370  1
  C  C18  1  0.036890  0.083030  0.679000  1
  C  C19  1  0.018540  0.513820  0.710200  1
  C  C20  1  -0.036480  0.429400  0.824980  1
  C  C21  1  -0.037540  0.256230  0.822080  1
  C  C22  1  -0.036890  0.083030  0.821000  1
  C  C23  1  0.018650  0.001650  0.713800  1
  C  C24  1  0.035130  0.601990  0.670400  1
  C  C25  1  -0.018540  0.513820  0.789800  1
  C  C26  1  -0.075660  0.256950  0.893900  1
  C  C27  1  -0.018650  0.001650  0.786200  1
  C  C28  1  0.017750  0.683400  0.708500  1
  C  C29  1  -0.035130  0.601990  0.829600  1
  C  C30  1  -0.107830  0.258020  0.952300  1
  C  C31  1  -0.017750  0.683400  0.791500  1
  C  C32  1  -0.176560  0.387430  1.023500  1
  C  C33  1  -0.148530  0.221750  1.251800  1
  C  C34  1  -0.194360  0.177500  0.918800  1
  C  C35  1  -0.144550  0.460360  1.090200  1
  C  C36  1  -0.130640  0.123700  1.279800  1
  C  C37  1  -0.204240  0.199800  0.738600  1
  C  C38  1  -0.159980  0.560420  1.073400  1
  C  C39  1  -0.119440  0.097900  1.458000  1
  C  C40  1  -0.230710  0.127300  0.637900  1
  C  C41  1  0.607830  -0.241980  0.547700  1
  C  C42  1  0.676560  -0.112570  0.476500  1
  C  C43  1  0.648530  -0.278250  0.248200  1
  C  C44  1  0.694360  -0.322500  0.581200  1
  C  C45  1  0.575660  -0.243050  0.606100  1
  C  C46  1  0.644550  -0.039640  0.409800  1
  C  C47  1  0.630640  -0.376300  0.220200  1
  C  C48  1  0.704240  -0.300200  0.761400  1
  C  C49  1  0.537540  -0.243770  0.677920  1
  C  C50  1  0.659980  0.060420  0.426600  1
  C  C51  1  0.619440  -0.402100  0.042000  1
  C  C52  1  0.730710  -0.372700  0.862100  1
  C  C53  1  0.518950  -0.156690  0.712910  1
  C  C54  1  0.518990  -0.328890  0.713630  1
  C  C55  1  0.536480  -0.070600  0.675020  1
  C  C56  1  0.481050  -0.156690  0.787090  1
  C  C57  1  0.481010  -0.328890  0.786370  1
  C  C58  1  0.536890  -0.416970  0.679000  1
  C  C59  1  0.518540  0.013820  0.710200  1
  C  C60  1  0.463520  -0.070600  0.824980  1
  C  C61  1  0.462460  -0.243770  0.822080  1
  C  C62  1  0.463110  -0.416970  0.821000  1
  C  C63  1  0.518650  -0.498350  0.713800  1
  C  C64  1  0.535130  0.101990  0.670400  1
  C  C65  1  0.481460  0.013820  0.789800  1
  C  C66  1  0.424340  -0.243050  0.893900  1
  C  C67  1  0.481350  -0.498350  0.786200  1
  C  C68  1  0.517750  0.183400  0.708500  1
  C  C69  1  0.464870  0.101990  0.829600  1
  C  C70  1  0.392170  -0.241980  0.952300  1
  C  C71  1  0.482250  0.183400  0.791500  1
  C  C72  1  0.323440  -0.112570  1.023500  1
  C  C73  1  0.351470  -0.278250  1.251800  1
  C  C74  1  0.305640  -0.322500  0.918800  1
  C  C75  1  0.355450  -0.039640  1.090200  1
  C  C76  1  0.369360  -0.376300  1.279800  1
  C  C77  1  0.295760  -0.300200  0.738600  1
  C  C78  1  0.340020  0.060420  1.073400  1
  C  C79  1  0.380560  -0.402100  1.458000  1
  C  C80  1  0.269290  -0.372700  0.637900  1
  C  C81  1  -0.107830  0.741980  0.452300  1
  C  C82  1  -0.176560  0.612570  0.523500  1
  C  C83  1  -0.148530  0.778250  0.751800  1
  C  C84  1  -0.194360  0.822500  0.418800  1
  C  C85  1  -0.075660  0.743050  0.393900  1
  C  C86  1  -0.144550  0.539640  0.590200  1
  C  C87  1  -0.130640  0.876300  0.779800  1
  C  C88  1  -0.204240  0.800200  0.238600  1
  C  C89  1  -0.037540  0.743770  0.322080  1
  C  C90  1  -0.159980  0.439580  0.573400  1
  C  C91  1  -0.119440  0.902100  0.958000  1
  C  C92  1  -0.230710  0.872700  0.137900  1
  C  C93  1  -0.018950  0.656690  0.287090  1
  C  C94  1  -0.018990  0.828890  0.286370  1
  C  C95  1  -0.036480  0.570600  0.324980  1
  C  C96  1  0.018950  0.656690  0.212910  1
  C  C97  1  0.018990  0.828890  0.213630  1
  C  C98  1  -0.036890  0.916970  0.321000  1
  C  C99  1  -0.018540  0.486180  0.289800  1
  C  C100  1  0.036480  0.570600  0.175020  1
  C  C101  1  0.037540  0.743770  0.177920  1
  C  C102  1  0.036890  0.916970  0.179000  1
  C  C103  1  -0.018650  0.998350  0.286200  1
  C  C104  1  -0.035130  0.398010  0.329600  1
  C  C105  1  0.018540  0.486180  0.210200  1
  C  C106  1  0.075660  0.743050  0.106100  1
  C  C107  1  0.018650  0.998350  0.213800  1
  C  C108  1  -0.017750  0.316600  0.291500  1
  C  C109  1  0.035130  0.398010  0.170400  1
  C  C110  1  0.107830  0.741980  0.047700  1
  C  C111  1  0.017750  0.316600  0.208500  1
  C  C112  1  0.176560  0.612570  -0.023500  1
  C  C113  1  0.148530  0.778250  -0.251800  1
  C  C114  1  0.194360  0.822500  0.081200  1
  C  C115  1  0.144550  0.539640  -0.090200  1
  C  C116  1  0.130640  0.876300  -0.279800  1
  C  C117  1  0.204240  0.800200  0.261400  1
  C  C118  1  0.159980  0.439580  -0.073400  1
  C  C119  1  0.119440  0.902100  -0.458000  1
  C  C120  1  0.230710  0.872700  0.362100  1
  C  C121  1  0.392170  0.241980  1.452300  1
  C  C122  1  0.323440  0.112570  1.523500  1
  C  C123  1  0.351470  0.278250  1.751800  1
  C  C124  1  0.305640  0.322500  1.418800  1
  C  C125  1  0.424340  0.243050  1.393900  1
  C  C126  1  0.355450  0.039640  1.590200  1
  C  C127  1  0.369360  0.376300  1.779800  1
  C  C128  1  0.295760  0.300200  1.238600  1
  C  C129  1  0.462460  0.243770  1.322080  1
  C  C130  1  0.340020  -0.060420  1.573400  1
  C  C131  1  0.380560  0.402100  1.958000  1
  C  C132  1  0.269290  0.372700  1.137900  1
  C  C133  1  0.481050  0.156690  1.287090  1
  C  C134  1  0.481010  0.328890  1.286370  1
  C  C135  1  0.463520  0.070600  1.324980  1
  C  C136  1  0.518950  0.156690  1.212910  1
  C  C137  1  0.518990  0.328890  1.213630  1
  C  C138  1  0.463110  0.416970  1.321000  1
  C  C139  1  0.481460  -0.013820  1.289800  1
  C  C140  1  0.536480  0.070600  1.175020  1
  C  C141  1  0.537540  0.243770  1.177920  1
  C  C142  1  0.536890  0.416970  1.179000  1
  C  C143  1  0.481350  0.498350  1.286200  1
  C  C144  1  0.464870  -0.101990  1.329600  1
  C  C145  1  0.518540  -0.013820  1.210200  1
  C  C146  1  0.575660  0.243050  1.106100  1
  C  C147  1  0.518650  0.498350  1.213800  1
  C  C148  1  0.482250  -0.183400  1.291500  1
  C  C149  1  0.535130  -0.101990  1.170400  1
  C  C150  1  0.607830  0.241980  1.047700  1
  C  C151  1  0.517750  -0.183400  1.208500  1
  C  C152  1  0.676560  0.112570  0.976500  1
  C  C153  1  0.648530  0.278250  0.748200  1
  C  C154  1  0.694360  0.322500  1.081200  1
  C  C155  1  0.644550  0.039640  0.909800  1
  C  C156  1  0.630640  0.376300  0.720200  1
  C  C157  1  0.704240  0.300200  1.261400  1
  C  C158  1  0.659980  -0.060420  0.926600  1
  C  C159  1  0.619440  0.402100  0.542000  1
  C  C160  1  0.730710  0.372700  1.362100  1
  F  F161  1  0.068510  0.602810  0.588330  1
  F  F162  1  0.033270  0.766290  0.668020  1
  F  F163  1  -0.068510  0.602810  0.911670  1
  F  F164  1  -0.033270  0.766290  0.831980  1
  F  F165  1  0.568510  0.102810  0.588330  1
  F  F166  1  0.533270  0.266290  0.668020  1
  F  F167  1  0.431490  0.102810  0.911670  1
  F  F168  1  0.466730  0.266290  0.831980  1
  F  F169  1  -0.068510  0.397190  0.411670  1
  F  F170  1  -0.033270  0.233710  0.331980  1
  F  F171  1  0.068510  0.397190  0.088330  1
  F  F172  1  0.033270  0.233710  0.168020  1
  F  F173  1  0.431490  -0.102810  1.411670  1
  F  F174  1  0.466730  -0.266290  1.331980  1
  F  F175  1  0.568510  -0.102810  1.088330  1
  F  F176  1  0.533270  -0.266290  1.168020  1
  H  H177  1  0.186300  0.402300  0.591100  1
  H  H178  1  0.200900  0.392700  0.417800  1
  H  H179  1  0.129100  0.265900  0.185700  1
  H  H180  1  0.175200  0.224600  0.204000  1
  H  H181  1  0.181700  0.114900  0.568400  1
  H  H182  1  0.220800  0.175900  0.534800  1
  H  H183  1  0.119800  0.454200  0.465900  1
  H  H184  1  0.135500  0.447200  0.294100  1
  H  H185  1  0.151300  0.078500  0.272500  1
  H  H186  1  0.105300  0.118400  0.273100  1
  H  H187  1  0.219000  0.260100  0.773900  1
  H  H188  1  0.177600  0.207100  0.805200  1
  H  H189  1  0.166000  0.576700  0.541200  1
  H  H190  1  0.138400  0.602100  0.372800  1
  H  H191  1  0.185400  0.566800  0.376700  1
  H  H192  1  0.098200  0.140900  -0.010100  1
  H  H193  1  0.108500  0.034400  0.033100  1
  H  H194  1  0.144400  0.101900  -0.011100  1
  H  H195  1  0.212700  0.087800  0.917700  1
  H  H196  1  0.251200  0.158500  0.941900  1
  H  H197  1  0.245300  0.088900  0.791500  1
  H  H198  1  0.060900  0.429700  0.624600  1
  H  H199  1  0.061700  0.081700  0.631200  1
  H  H200  1  -0.060900  0.429700  0.875400  1
  H  H201  1  -0.061700  0.081700  0.868800  1
  H  H202  1  0.030900  -0.055600  0.689800  1
  H  H203  1  -0.030900  -0.055600  0.810200  1
  H  H204  1  -0.186300  0.402300  0.908900  1
  H  H205  1  -0.200900  0.392700  1.082200  1
  H  H206  1  -0.129100  0.265900  1.314300  1
  H  H207  1  -0.175200  0.224600  1.296000  1
  H  H208  1  -0.181700  0.114900  0.931600  1
  H  H209  1  -0.220800  0.175900  0.965200  1
  H  H210  1  -0.119800  0.454200  1.034100  1
  H  H211  1  -0.135500  0.447200  1.205900  1
  H  H212  1  -0.151300  0.078500  1.227500  1
  H  H213  1  -0.105300  0.118400  1.226900  1
  H  H214  1  -0.219000  0.260100  0.726100  1
  H  H215  1  -0.177600  0.207100  0.694800  1
  H  H216  1  -0.166000  0.576700  0.958800  1
  H  H217  1  -0.138400  0.602100  1.127200  1
  H  H218  1  -0.185400  0.566800  1.123300  1
  H  H219  1  -0.098200  0.140900  1.510100  1
  H  H220  1  -0.108500  0.034400  1.466900  1
  H  H221  1  -0.144400  0.101900  1.511100  1
  H  H222  1  -0.212700  0.087800  0.582300  1
  H  H223  1  -0.251200  0.158500  0.558100  1
  H  H224  1  -0.245300  0.088900  0.708500  1
  H  H225  1  0.686300  -0.097700  0.591100  1
  H  H226  1  0.700900  -0.107300  0.417800  1
  H  H227  1  0.629100  -0.234100  0.185700  1
  H  H228  1  0.675200  -0.275400  0.204000  1
  H  H229  1  0.681700  -0.385100  0.568400  1
  H  H230  1  0.720800  -0.324100  0.534800  1
  H  H231  1  0.619800  -0.045800  0.465900  1
  H  H232  1  0.635500  -0.052800  0.294100  1
  H  H233  1  0.651300  -0.421500  0.272500  1
  H  H234  1  0.605300  -0.381600  0.273100  1
  H  H235  1  0.719000  -0.239900  0.773900  1
  H  H236  1  0.677600  -0.292900  0.805200  1
  H  H237  1  0.666000  0.076700  0.541200  1
  H  H238  1  0.638400  0.102100  0.372800  1
  H  H239  1  0.685400  0.066800  0.376700  1
  H  H240  1  0.598200  -0.359100  -0.010100  1
  H  H241  1  0.608500  -0.465600  0.033100  1
  H  H242  1  0.644400  -0.398100  -0.011100  1
  H  H243  1  0.712700  -0.412200  0.917700  1
  H  H244  1  0.751200  -0.341500  0.941900  1
  H  H245  1  0.745300  -0.411100  0.791500  1
  H  H246  1  0.560900  -0.070300  0.624600  1
  H  H247  1  0.561700  -0.418300  0.631200  1
  H  H248  1  0.439100  -0.070300  0.875400  1
  H  H249  1  0.438300  -0.418300  0.868800  1
  H  H250  1  0.530900  -0.555600  0.689800  1
  H  H251  1  0.469100  -0.555600  0.810200  1
  H  H252  1  0.313700  -0.097700  0.908900  1
  H  H253  1  0.299100  -0.107300  1.082200  1
  H  H254  1  0.370900  -0.234100  1.314300  1
  H  H255  1  0.324800  -0.275400  1.296000  1
  H  H256  1  0.318300  -0.385100  0.931600  1
  H  H257  1  0.279200  -0.324100  0.965200  1
  H  H258  1  0.380200  -0.045800  1.034100  1
  H  H259  1  0.364500  -0.052800  1.205900  1
  H  H260  1  0.348700  -0.421500  1.227500  1
  H  H261  1  0.394700  -0.381600  1.226900  1
  H  H262  1  0.281000  -0.239900  0.726100  1
  H  H263  1  0.322400  -0.292900  0.694800  1
  H  H264  1  0.334000  0.076700  0.958800  1
  H  H265  1  0.361600  0.102100  1.127200  1
  H  H266  1  0.314600  0.066800  1.123300  1
  H  H267  1  0.401800  -0.359100  1.510100  1
  H  H268  1  0.391500  -0.465600  1.466900  1
  H  H269  1  0.355600  -0.398100  1.511100  1
  H  H270  1  0.287300  -0.412200  0.582300  1
  H  H271  1  0.248800  -0.341500  0.558100  1
  H  H272  1  0.254700  -0.411100  0.708500  1
  H  H273  1  -0.186300  0.597700  0.408900  1
  H  H274  1  -0.200900  0.607300  0.582200  1
  H  H275  1  -0.129100  0.734100  0.814300  1
  H  H276  1  -0.175200  0.775400  0.796000  1
  H  H277  1  -0.181700  0.885100  0.431600  1
  H  H278  1  -0.220800  0.824100  0.465200  1
  H  H279  1  -0.119800  0.545800  0.534100  1
  H  H280  1  -0.135500  0.552800  0.705900  1
  H  H281  1  -0.151300  0.921500  0.727500  1
  H  H282  1  -0.105300  0.881600  0.726900  1
  H  H283  1  -0.219000  0.739900  0.226100  1
  H  H284  1  -0.177600  0.792900  0.194800  1
  H  H285  1  -0.166000  0.423300  0.458800  1
  H  H286  1  -0.138400  0.397900  0.627200  1
  H  H287  1  -0.185400  0.433200  0.623300  1
  H  H288  1  -0.098200  0.859100  1.010100  1
  H  H289  1  -0.108500  0.965600  0.966900  1
  H  H290  1  -0.144400  0.898100  1.011100  1
  H  H291  1  -0.212700  0.912200  0.082300  1
  H  H292  1  -0.251200  0.841500  0.058100  1
  H  H293  1  -0.245300  0.911100  0.208500  1
  H  H294  1  -0.060900  0.570300  0.375400  1
  H  H295  1  -0.061700  0.918300  0.368800  1
  H  H296  1  0.060900  0.570300  0.124600  1
  H  H297  1  0.061700  0.918300  0.131200  1
  H  H298  1  -0.030900  1.055600  0.310200  1
  H  H299  1  0.030900  1.055600  0.189800  1
  H  H300  1  0.186300  0.597700  0.091100  1
  H  H301  1  0.200900  0.607300  -0.082200  1
  H  H302  1  0.129100  0.734100  -0.314300  1
  H  H303  1  0.175200  0.775400  -0.296000  1
  H  H304  1  0.181700  0.885100  0.068400  1
  H  H305  1  0.220800  0.824100  0.034800  1
  H  H306  1  0.119800  0.545800  -0.034100  1
  H  H307  1  0.135500  0.552800  -0.205900  1
  H  H308  1  0.151300  0.921500  -0.227500  1
  H  H309  1  0.105300  0.881600  -0.226900  1
  H  H310  1  0.219000  0.739900  0.273900  1
  H  H311  1  0.177600  0.792900  0.305200  1
  H  H312  1  0.166000  0.423300  0.041200  1
  H  H313  1  0.138400  0.397900  -0.127200  1
  H  H314  1  0.185400  0.433200  -0.123300  1
  H  H315  1  0.098200  0.859100  -0.510100  1
  H  H316  1  0.108500  0.965600  -0.466900  1
  H  H317  1  0.144400  0.898100  -0.511100  1
  H  H318  1  0.212700  0.912200  0.417700  1
  H  H319  1  0.251200  0.841500  0.441900  1
  H  H320  1  0.245300  0.911100  0.291500  1
  H  H321  1  0.313700  0.097700  1.408900  1
  H  H322  1  0.299100  0.107300  1.582200  1
  H  H323  1  0.370900  0.234100  1.814300  1
  H  H324  1  0.324800  0.275400  1.796000  1
  H  H325  1  0.318300  0.385100  1.431600  1
  H  H326  1  0.279200  0.324100  1.465200  1
  H  H327  1  0.380200  0.045800  1.534100  1
  H  H328  1  0.364500  0.052800  1.705900  1
  H  H329  1  0.348700  0.421500  1.727500  1
  H  H330  1  0.394700  0.381600  1.726900  1
  H  H331  1  0.281000  0.239900  1.226100  1
  H  H332  1  0.322400  0.292900  1.194800  1
  H  H333  1  0.334000  -0.076700  1.458800  1
  H  H334  1  0.361600  -0.102100  1.627200  1
  H  H335  1  0.314600  -0.066800  1.623300  1
  H  H336  1  0.401800  0.359100  2.010100  1
  H  H337  1  0.391500  0.465600  1.966900  1
  H  H338  1  0.355600  0.398100  2.011100  1
  H  H339  1  0.287300  0.412200  1.082300  1
  H  H340  1  0.248800  0.341500  1.058100  1
  H  H341  1  0.254700  0.411100  1.208500  1
  H  H342  1  0.439100  0.070300  1.375400  1
  H  H343  1  0.438300  0.418300  1.368800  1
  H  H344  1  0.560900  0.070300  1.124600  1
  H  H345  1  0.561700  0.418300  1.131200  1
  H  H346  1  0.469100  0.555600  1.310200  1
  H  H347  1  0.530900  0.555600  1.189800  1
  H  H348  1  0.686300  0.097700  1.091100  1
  H  H349  1  0.700900  0.107300  0.917800  1
  H  H350  1  0.629100  0.234100  0.685700  1
  H  H351  1  0.675200  0.275400  0.704000  1
  H  H352  1  0.681700  0.385100  1.068400  1
  H  H353  1  0.720800  0.324100  1.034800  1
  H  H354  1  0.619800  0.045800  0.965900  1
  H  H355  1  0.635500  0.052800  0.794100  1
  H  H356  1  0.651300  0.421500  0.772500  1
  H  H357  1  0.605300  0.381600  0.773100  1
  H  H358  1  0.719000  0.239900  1.273900  1
  H  H359  1  0.677600  0.292900  1.305200  1
  H  H360  1  0.666000  -0.076700  1.041200  1
  H  H361  1  0.638400  -0.102100  0.872800  1
  H  H362  1  0.685400  -0.066800  0.876700  1
  H  H363  1  0.598200  0.359100  0.489900  1
  H  H364  1  0.608500  0.465600  0.533100  1
  H  H365  1  0.644400  0.398100  0.488900  1
  H  H366  1  0.712700  0.412200  1.417700  1
  H  H367  1  0.751200  0.341500  1.441900  1
  H  H368  1  0.745300  0.411100  1.291500  1
  Si  Si369  1  0.158182  0.262400  0.464230  1.0
  Si  Si370  1  -0.158182  0.262400  1.035770  1
  Si  Si371  1  0.658182  -0.237600  0.464230  1.0
  Si  Si372  1  0.341818  -0.237600  1.035770  1
  Si  Si373  1  -0.158182  0.737600  0.535770  1.0
  Si  Si374  1  0.158182  0.737600  -0.035770  1
  Si  Si375  1  0.341818  0.237600  1.535770  1.0
  Si  Si376  1  0.658182  0.237600  0.964230  1
