# generated using pymatgen
data_SiH19C17S
_symmetry_space_group_name_H-M   'P 1'
_cell_length_a   6.67630000
_cell_length_b   7.24900000
_cell_length_c   16.67360000
_cell_angle_alpha   97.84000000
_cell_angle_beta   94.76800000
_cell_angle_gamma   103.77000000
_symmetry_Int_Tables_number   1
_chemical_formula_structural   SiH19C17S
_chemical_formula_sum   'Si2 H38 C34 S2'
_cell_volume   770.80265806
_cell_formula_units_Z   2
loop_
 _symmetry_equiv_pos_site_id
 _symmetry_equiv_pos_as_xyz
  1  'x, y, z'
loop_
 _atom_site_type_symbol
 _atom_site_label
 _atom_site_symmetry_multiplicity
 _atom_site_fract_x
 _atom_site_fract_y
 _atom_site_fract_z
 _atom_site_occupancy
  C  C1  1  0.703200  0.396300  0.279890  1
  C  C2  1  1.078900  0.430700  0.187840  1
  C  C3  1  0.693100  0.563400  0.127590  1
  C  C4  1  0.675000  0.130800  0.119700  1
  C  C5  1  0.644700  0.422100  0.346250  1
  C  C6  1  1.193900  0.620100  0.242300  1
  C  C7  1  0.771900  0.594600  0.045550  1
  C  C8  1  0.446200  0.046300  0.126710  1
  C  C9  1  0.574000  0.458500  0.423770  1
  C  C10  1  0.368200  0.365200  0.435230  1
  C  C11  1  0.707300  0.590200  0.487780  1
  C  C12  1  0.237500  0.227300  0.372740  1
  C  C13  1  0.292700  0.409800  0.512220  1
  C  C14  1  0.631800  0.634800  0.564770  1
  C  C15  1  0.914900  0.678100  0.477660  1
  C  C16  1  0.038800  0.141300  0.385530  1
  C  C17  1  0.426000  0.541500  0.576230  1
  C  C18  1  0.085100  0.321900  0.522340  1
  C  C19  1  0.762500  0.772700  0.627260  1
  C  C20  1  1.040900  0.808300  0.539900  1
  C  C21  1  -0.040900  0.191700  0.460100  1
  C  C22  1  0.355300  0.577900  0.653750  1
  C  C23  1  0.961200  0.858700  0.614470  1
  C  C24  1  1.253400  0.910600  0.542500  1
  C  C25  1  -0.253400  0.089400  0.457500  1
  C  C26  1  -0.329500  -0.033100  0.388530  1
  C  C27  1  0.296800  0.603700  0.720110  1
  C  C28  1  1.329500  1.033100  0.611470  1
  C  C29  1  -0.078900  0.569300  0.812160  1
  C  C30  1  0.306900  0.436600  0.872410  1
  C  C31  1  0.325000  0.869200  0.880300  1
  C  C32  1  -0.193900  0.379900  0.757700  1
  C  C33  1  0.228100  0.405400  0.954450  1
  C  C34  1  0.553800  0.953700  0.873290  1
  H  H35  1  1.121300  0.323900  0.209900  1
  H  H36  1  1.123700  0.432500  0.132800  1
  H  H37  1  0.539400  0.524000  0.119200  1
  H  H38  1  0.735100  0.687700  0.165200  1
  H  H39  1  0.691700  0.133200  0.061400  1
  H  H40  1  0.755800  0.043900  0.139100  1
  H  H41  1  1.154400  0.727500  0.220900  1
  H  H42  1  1.344100  0.636400  0.243000  1
  H  H43  1  1.156900  0.617700  0.297900  1
  H  H44  1  0.923600  0.641200  0.053500  1
  H  H45  1  0.711100  0.689800  0.023100  1
  H  H46  1  0.731400  0.472600  0.007600  1
  H  H47  1  0.427000  0.043300  0.184200  1
  H  H48  1  0.401700  -0.084900  0.096100  1
  H  H49  1  0.362900  0.126100  0.104300  1
  H  H50  1  0.286800  0.194300  0.322300  1
  H  H51  1  0.967300  0.646900  0.427700  1
  H  H52  1  0.032700  0.353100  0.572300  1
  H  H53  1  0.713200  0.805700  0.677700  1
  H  H54  1  1.333400  0.892800  0.498900  1
  H  H55  1  -0.333400  0.107200  0.501100  1
  H  H56  1  -0.467700  -0.111800  0.378400  1
  H  H57  1  1.467700  1.111800  0.621600  1
  H  H58  1  -0.121300  0.676100  0.790100  1
  H  H59  1  -0.123700  0.567500  0.867200  1
  H  H60  1  0.460600  0.476000  0.880800  1
  H  H61  1  0.264900  0.312300  0.834800  1
  H  H62  1  0.308300  0.866800  0.938600  1
  H  H63  1  0.244200  0.956100  0.860900  1
  H  H64  1  -0.154400  0.272500  0.779100  1
  H  H65  1  -0.344100  0.363600  0.757000  1
  H  H66  1  -0.156900  0.382300  0.702100  1
  H  H67  1  0.076400  0.358800  0.946500  1
  H  H68  1  0.288900  0.310200  0.976900  1
  H  H69  1  0.268600  0.527400  0.992400  1
  H  H70  1  0.573000  0.956700  0.815800  1
  H  H71  1  0.598300  1.084900  0.903900  1
  H  H72  1  0.637100  0.873900  0.895700  1
  S  S73  1  -0.148670  -0.033310  0.318960  1
  S  S74  1  1.148670  1.033310  0.681040  1
  Si  Si75  1  0.788890  0.379020  0.177760  1.0
  Si  Si76  1  0.211110  0.620980  0.822240  1
