# generated using pymatgen
data_SiH23(C11F2)2
_symmetry_space_group_name_H-M   'P 1'
_cell_length_a   7.71820000
_cell_length_b   15.54510000
_cell_length_c   16.87520000
_cell_angle_alpha   102.24660000
_cell_angle_beta   92.66640000
_cell_angle_gamma   91.54550000
_symmetry_Int_Tables_number   1
_chemical_formula_structural   SiH23(C11F2)2
_chemical_formula_sum   'Si4 H92 C88 F16'
_cell_volume   1975.06520632
_cell_formula_units_Z   4
loop_
 _symmetry_equiv_pos_site_id
 _symmetry_equiv_pos_as_xyz
  1  'x, y, z'
loop_
 _atom_site_type_symbol
 _atom_site_label
 _atom_site_symmetry_multiplicity
 _atom_site_fract_x
 _atom_site_fract_y
 _atom_site_fract_z
 _atom_site_occupancy
  C  C1  1  0.165600  0.653800  0.777600  1
  C  C2  1  0.478900  0.661400  0.678500  1
  C  C3  1  0.100100  0.661900  0.602200  1
  C  C4  1  0.235300  0.493700  0.652200  1
  C  C5  1  0.108600  0.677900  0.844100  1
  C  C6  1  0.493000  0.762500  0.706900  1
  C  C7  1  0.603600  0.618000  0.730400  1
  C  C8  1  0.014700  0.748000  0.639200  1
  C  C9  1  0.190600  0.671500  0.525700  1
  C  C10  1  0.285400  0.454200  0.565400  1
  C  C11  1  0.056600  0.457600  0.667700  1
  C  C12  1  0.049200  0.706600  0.923890  1
  C  C13  1  -0.052900  0.649300  0.958950  1
  C  C14  1  0.096300  0.793500  0.968260  1
  C  C15  1  -0.106600  0.564200  0.914800  1
  C  C16  1  -0.104000  0.677100  1.041240  1
  C  C17  1  0.040400  0.822200  1.049250  1
  C  C18  1  0.190100  0.852100  0.932500  1
  C  C19  1  -0.201400  0.506900  0.950300  1
  C  C20  1  -0.199800  0.617400  1.076600  1
  C  C21  1  -0.058000  0.763600  1.085470  1
  C  C22  1  0.081400  0.909400  1.091500  1
  C  C23  1  0.226300  0.939000  0.974200  1
  C  C24  1  -0.256000  0.420000  0.906700  1
  C  C25  1  -0.247700  0.533800  1.033400  1
  C  C26  1  -0.117400  0.793400  1.165400  1
  C  C27  1  0.171500  0.967400  1.055100  1
  C  C28  1  0.315800  1.001200  0.938500  1
  C  C29  1  -0.348500  0.365900  0.941700  1
  C  C30  1  -0.343900  0.472700  1.067100  1
  C  C31  1  -0.171600  0.820600  1.231500  1
  C  C32  1  0.208000  1.057000  1.095300  1
  C  C33  1  0.348400  1.085400  0.979100  1
  C  C34  1  -0.392900  0.391500  1.023600  1
  C  C35  1  0.292900  1.113100  1.059000  1
  C  C36  1  -0.076600  0.927500  1.398500  1
  C  C37  1  -0.420400  0.951400  1.308100  1
  C  C38  1  -0.348600  0.773400  1.371700  1
  C  C39  1  0.006500  1.001100  1.362300  1
  C  C40  1  0.060300  0.864400  1.418000  1
  C  C41  1  -0.576700  0.912300  1.251000  1
  C  C42  1  -0.479400  1.013200  1.383900  1
  C  C43  1  -0.410100  0.802600  1.458200  1
  C  C44  1  -0.487000  0.713700  1.315800  1
  C  C45  1  -0.165600  0.346200  1.222400  1
  C  C46  1  -0.478900  0.338600  1.321500  1
  C  C47  1  -0.100100  0.338100  1.397800  1
  C  C48  1  -0.235300  0.506300  1.347800  1
  C  C49  1  -0.108600  0.322100  1.155900  1
  C  C50  1  -0.493000  0.237500  1.293100  1
  C  C51  1  -0.603600  0.382000  1.269600  1
  C  C52  1  -0.014700  0.252000  1.360800  1
  C  C53  1  -0.190600  0.328500  1.474300  1
  C  C54  1  -0.285400  0.545800  1.434600  1
  C  C55  1  -0.056600  0.542400  1.332300  1
  C  C56  1  -0.049200  0.293400  1.076110  1
  C  C57  1  0.052900  0.350700  1.041050  1
  C  C58  1  -0.096300  0.206500  1.031740  1
  C  C59  1  0.106600  0.435800  1.085200  1
  C  C60  1  0.104000  0.322900  0.958760  1
  C  C61  1  -0.040400  0.177800  0.950750  1
  C  C62  1  -0.190100  0.147900  1.067500  1
  C  C63  1  0.201400  0.493100  1.049700  1
  C  C64  1  0.199800  0.382600  0.923400  1
  C  C65  1  0.058000  0.236400  0.914530  1
  C  C66  1  -0.081400  0.090600  0.908500  1
  C  C67  1  -0.226300  0.061000  1.025800  1
  C  C68  1  0.256000  0.580000  1.093300  1
  C  C69  1  0.247700  0.466200  0.966600  1
  C  C70  1  0.117400  0.206600  0.834600  1
  C  C71  1  -0.171500  0.032600  0.944900  1
  C  C72  1  -0.315800  -0.001200  1.061500  1
  C  C73  1  0.348500  0.634100  1.058300  1
  C  C74  1  0.343900  0.527300  0.932900  1
  C  C75  1  0.171600  0.179400  0.768500  1
  C  C76  1  -0.208000  -0.057000  0.904700  1
  C  C77  1  -0.348400  -0.085400  1.020900  1
  C  C78  1  0.392900  0.608500  0.976400  1
  C  C79  1  -0.292900  -0.113100  0.941000  1
  C  C80  1  0.076600  0.072500  0.601500  1
  C  C81  1  0.420400  0.048600  0.691900  1
  C  C82  1  0.348600  0.226600  0.628300  1
  C  C83  1  -0.006500  -0.001100  0.637700  1
  C  C84  1  -0.060300  0.135600  0.582000  1
  C  C85  1  0.576700  0.087700  0.749000  1
  C  C86  1  0.479400  -0.013200  0.616100  1
  C  C87  1  0.410100  0.197400  0.541800  1
  C  C88  1  0.487000  0.286300  0.684200  1
  F  F89  1  -0.213900  0.395000  0.829190  1
  F  F90  1  0.368300  0.974830  0.862410  1
  F  F91  1  -0.399700  0.284480  0.900860  1
  F  F92  1  -0.388100  0.497580  1.144650  1
  F  F93  1  0.155700  1.084940  1.170610  1
  F  F94  1  0.432000  1.143940  0.945790  1
  F  F95  1  -0.486200  0.334630  1.055180  1
  F  F96  1  0.325500  1.197680  1.095990  1
  F  F97  1  0.213900  0.605000  1.170810  1
  F  F98  1  -0.368300  0.025170  1.137590  1
  F  F99  1  0.399700  0.715520  1.099140  1
  F  F100  1  0.388100  0.502420  0.855350  1
  F  F101  1  -0.155700  -0.084940  0.829390  1
  F  F102  1  -0.432000  -0.143940  1.054210  1
  F  F103  1  0.486200  0.665370  0.944820  1
  F  F104  1  -0.325500  -0.197680  0.904010  1
  H  H105  1  0.517600  0.646800  0.621700  1
  H  H106  1  0.003700  0.616700  0.584100  1
  H  H107  1  0.321500  0.474000  0.690000  1
  H  H108  1  0.453000  0.779400  0.762100  1
  H  H109  1  0.420800  0.789400  0.670200  1
  H  H110  1  0.614200  0.782800  0.706300  1
  H  H111  1  0.721100  0.643600  0.730600  1
  H  H112  1  0.603700  0.554500  0.707600  1
  H  H113  1  0.565700  0.628100  0.786100  1
  H  H114  1  0.103400  0.795900  0.652700  1
  H  H115  1  -0.041500  0.741500  0.688600  1
  H  H116  1  -0.072300  0.761700  0.600000  1
  H  H117  1  0.104200  0.681700  0.484700  1
  H  H118  1  0.251000  0.617400  0.504400  1
  H  H119  1  0.274800  0.721400  0.539100  1
  H  H120  1  0.280200  0.389800  0.556500  1
  H  H121  1  0.403500  0.474600  0.557900  1
  H  H122  1  0.204400  0.473000  0.526500  1
  H  H123  1  -0.032400  0.479000  0.634100  1
  H  H124  1  0.033200  0.477700  0.725100  1
  H  H125  1  0.054500  0.393100  0.653800  1
  H  H126  1  -0.077300  0.546000  0.859900  1
  H  H127  1  0.229700  0.832700  0.879500  1
  H  H128  1  -0.231700  0.635200  1.131200  1
  H  H129  1  0.046700  0.928500  1.145500  1
  H  H130  1  -0.125900  0.956300  1.450900  1
  H  H131  1  -0.354800  0.989800  1.278300  1
  H  H132  1  -0.247600  0.735400  1.376300  1
  H  H133  1  0.101200  1.031400  1.399300  1
  H  H134  1  -0.081500  1.043500  1.354800  1
  H  H135  1  0.052300  0.975200  1.309700  1
  H  H136  1  0.102500  0.830400  1.367300  1
  H  H137  1  0.008500  0.824100  1.448600  1
  H  H138  1  0.157400  0.898300  1.450700  1
  H  H139  1  -0.656100  0.881100  1.279900  1
  H  H140  1  -0.536300  0.870900  1.203800  1
  H  H141  1  -0.637400  0.959700  1.232800  1
  H  H142  1  -0.550200  1.058800  1.367900  1
  H  H143  1  -0.377600  1.041000  1.417400  1
  H  H144  1  -0.548500  0.979700  1.415000  1
  H  H145  1  -0.515900  0.835900  1.456700  1
  H  H146  1  -0.319300  0.840100  1.492400  1
  H  H147  1  -0.434400  0.750600  1.480600  1
  H  H148  1  -0.514900  0.662400  1.338600  1
  H  H149  1  -0.442100  0.694000  1.261800  1
  H  H150  1  -0.592000  0.746800  1.311300  1
  H  H151  1  -0.517600  0.353200  1.378300  1
  H  H152  1  -0.003700  0.383300  1.415900  1
  H  H153  1  -0.321500  0.526000  1.310000  1
  H  H154  1  -0.453000  0.220600  1.237900  1
  H  H155  1  -0.420800  0.210600  1.329800  1
  H  H156  1  -0.614200  0.217200  1.293700  1
  H  H157  1  -0.721100  0.356400  1.269400  1
  H  H158  1  -0.603700  0.445500  1.292400  1
  H  H159  1  -0.565700  0.371900  1.213900  1
  H  H160  1  -0.103400  0.204100  1.347300  1
  H  H161  1  0.041500  0.258500  1.311400  1
  H  H162  1  0.072300  0.238300  1.400000  1
  H  H163  1  -0.104200  0.318300  1.515300  1
  H  H164  1  -0.251000  0.382600  1.495600  1
  H  H165  1  -0.274800  0.278600  1.460900  1
  H  H166  1  -0.280200  0.610200  1.443500  1
  H  H167  1  -0.403500  0.525400  1.442100  1
  H  H168  1  -0.204400  0.527000  1.473500  1
  H  H169  1  0.032400  0.521000  1.365900  1
  H  H170  1  -0.033200  0.522300  1.274900  1
  H  H171  1  -0.054500  0.606900  1.346200  1
  H  H172  1  0.077300  0.454000  1.140100  1
  H  H173  1  -0.229700  0.167300  1.120500  1
  H  H174  1  0.231700  0.364800  0.868800  1
  H  H175  1  -0.046700  0.071500  0.854500  1
  H  H176  1  0.125900  0.043700  0.549100  1
  H  H177  1  0.354800  0.010200  0.721700  1
  H  H178  1  0.247600  0.264600  0.623700  1
  H  H179  1  -0.101200  -0.031400  0.600700  1
  H  H180  1  0.081500  -0.043500  0.645200  1
  H  H181  1  -0.052300  0.024800  0.690300  1
  H  H182  1  -0.102500  0.169600  0.632700  1
  H  H183  1  -0.008500  0.175900  0.551400  1
  H  H184  1  -0.157400  0.101700  0.549300  1
  H  H185  1  0.656100  0.118900  0.720100  1
  H  H186  1  0.536300  0.129100  0.796200  1
  H  H187  1  0.637400  0.040300  0.767200  1
  H  H188  1  0.550200  -0.058800  0.632100  1
  H  H189  1  0.377600  -0.041000  0.582600  1
  H  H190  1  0.548500  0.020300  0.585000  1
  H  H191  1  0.515900  0.164100  0.543300  1
  H  H192  1  0.319300  0.159900  0.507600  1
  H  H193  1  0.434400  0.249400  0.519400  1
  H  H194  1  0.514900  0.337600  0.661400  1
  H  H195  1  0.442100  0.306000  0.738200  1
  H  H196  1  0.592000  0.253200  0.688700  1
  Si  Si197  1  0.248120  0.617780  0.675620  1.0
  Si  Si198  1  -0.262100  0.868320  1.329670  1
  Si  Si199  1  -0.248120  0.382220  1.324380  1.0
  Si  Si200  1  0.262100  0.131680  0.670330  1
