# generated using pymatgen
data_SiH15C19
_symmetry_space_group_name_H-M   'P 1'
_cell_length_a   11.51500000
_cell_length_b   6.67200000
_cell_length_c   19.57300000
_cell_angle_alpha   90.00000000
_cell_angle_beta   92.36200000
_cell_angle_gamma   90.00000000
_symmetry_Int_Tables_number   1
_chemical_formula_structural   SiH15C19
_chemical_formula_sum   'Si4 H60 C76'
_cell_volume   1502.47839368
_cell_formula_units_Z   4
loop_
 _symmetry_equiv_pos_site_id
 _symmetry_equiv_pos_as_xyz
  1  'x, y, z'
loop_
 _atom_site_type_symbol
 _atom_site_label
 _atom_site_symmetry_multiplicity
 _atom_site_fract_x
 _atom_site_fract_y
 _atom_site_fract_z
 _atom_site_occupancy
  C  C1  1  0.309990  0.635200  0.419810  1
  C  C2  1  0.416300  0.640000  0.284060  1
  C  C3  1  0.569900  0.565300  0.410690  1
  C  C4  1  0.464430  0.977800  0.388620  1
  C  C5  1  0.218280  0.594500  0.444160  1
  C  C6  1  0.322530  0.548900  0.258950  1
  C  C7  1  0.639070  0.457500  0.373780  1
  C  C8  1  0.396200  1.094200  0.422700  1
  C  C9  1  0.108850  0.546800  0.472410  1
  C  C10  1  0.048790  0.371300  0.450100  1
  C  C11  1  0.061930  0.676200  0.521660  1
  C  C12  1  0.093490  0.241900  0.400670  1
  C  C13  1  -0.061930  0.323800  0.478340  1
  C  C14  1  -0.048790  0.628700  0.549900  1
  C  C15  1  0.119680  0.852600  0.543710  1
  C  C16  1  0.035250  0.069600  0.379150  1
  C  C17  1  -0.108850  0.453200  0.527590  1
  C  C18  1  -0.119680  0.147400  0.456290  1
  C  C19  1  -0.093490  0.758100  0.599330  1
  C  C20  1  0.074590  0.979000  0.592140  1
  C  C21  1  0.080370  -0.063200  0.329120  1
  C  C22  1  -0.074590  0.021000  0.407860  1
  C  C23  1  -0.218280  0.405500  0.555840  1
  C  C24  1  -0.035250  0.930400  0.620850  1
  C  C25  1  0.132930  1.158900  0.614430  1
  C  C26  1  0.021230  -0.230500  0.309040  1
  C  C27  1  -0.132930  -0.158900  0.385570  1
  C  C28  1  -0.309990  0.364800  0.580190  1
  C  C29  1  -0.080370  1.063200  0.670880  1
  C  C30  1  0.087060  1.278900  0.662140  1
  C  C31  1  -0.087060  -0.278900  0.337860  1
  C  C32  1  -0.021230  1.230500  0.690960  1
  C  C33  1  -0.416300  0.360000  0.715940  1
  C  C34  1  -0.569900  0.434700  0.589310  1
  C  C35  1  -0.464430  0.022200  0.611380  1
  C  C36  1  -0.322530  0.451100  0.741050  1
  C  C37  1  -0.639070  0.542500  0.626220  1
  C  C38  1  -0.396200  -0.094200  0.577300  1
  C  C39  1  -0.309990  0.135200  0.080190  1
  C  C40  1  -0.416300  0.140000  0.215940  1
  C  C41  1  -0.569900  0.065300  0.089310  1
  C  C42  1  -0.464430  0.477800  0.111380  1
  C  C43  1  -0.218280  0.094500  0.055840  1
  C  C44  1  -0.322530  0.048900  0.241050  1
  C  C45  1  -0.639070  -0.042500  0.126220  1
  C  C46  1  -0.396200  0.594200  0.077300  1
  C  C47  1  -0.108850  0.046800  0.027590  1
  C  C48  1  -0.048790  -0.128700  0.049900  1
  C  C49  1  -0.061930  0.176200  -0.021660  1
  C  C50  1  -0.093490  -0.258100  0.099330  1
  C  C51  1  0.061930  -0.176200  0.021660  1
  C  C52  1  0.048790  0.128700  -0.049900  1
  C  C53  1  -0.119680  0.352600  -0.043710  1
  C  C54  1  -0.035250  -0.430400  0.120850  1
  C  C55  1  0.108850  -0.046800  -0.027590  1
  C  C56  1  0.119680  -0.352600  0.043710  1
  C  C57  1  0.093490  0.258100  -0.099330  1
  C  C58  1  -0.074590  0.479000  -0.092140  1
  C  C59  1  -0.080370  -0.563200  0.170880  1
  C  C60  1  0.074590  -0.479000  0.092140  1
  C  C61  1  0.218280  -0.094500  -0.055840  1
  C  C62  1  0.035250  0.430400  -0.120850  1
  C  C63  1  -0.132930  0.658900  -0.114430  1
  C  C64  1  -0.021230  -0.730500  0.190960  1
  C  C65  1  0.132930  -0.658900  0.114430  1
  C  C66  1  0.309990  -0.135200  -0.080190  1
  C  C67  1  0.080370  0.563200  -0.170880  1
  C  C68  1  -0.087060  0.778900  -0.162140  1
  C  C69  1  0.087060  -0.778900  0.162140  1
  C  C70  1  0.021230  0.730500  -0.190960  1
  C  C71  1  0.416300  -0.140000  -0.215940  1
  C  C72  1  0.569900  -0.065300  -0.089310  1
  C  C73  1  0.464430  -0.477800  -0.111380  1
  C  C74  1  0.322530  -0.048900  -0.241050  1
  C  C75  1  0.639070  0.042500  -0.126220  1
  C  C76  1  0.396200  -0.594200  -0.077300  1
  H  H77  1  0.474800  0.674600  0.253300  1
  H  H78  1  0.586700  0.572200  0.458600  1
  H  H79  1  0.530400  1.037100  0.369200  1
  H  H80  1  0.262400  0.512200  0.288300  1
  H  H81  1  0.315000  0.519700  0.211500  1
  H  H82  1  0.624800  0.447400  0.325800  1
  H  H83  1  0.703400  0.389700  0.395100  1
  H  H84  1  0.329400  1.040100  0.442900  1
  H  H85  1  0.413400  1.232900  0.427300  1
  H  H86  1  0.165700  0.273700  0.381500  1
  H  H87  1  0.191800  0.885800  0.524700  1
  H  H88  1  -0.191800  0.114200  0.475300  1
  H  H89  1  -0.165700  0.726300  0.618500  1
  H  H90  1  0.152700  -0.033700  0.309800  1
  H  H91  1  0.204700  1.194300  0.595500  1
  H  H92  1  0.052200  -0.316100  0.275500  1
  H  H93  1  -0.204700  -0.194300  0.404500  1
  H  H94  1  -0.152700  1.033700  0.690200  1
  H  H95  1  0.127400  1.396600  0.676600  1
  H  H96  1  -0.127400  -0.396600  0.323400  1
  H  H97  1  -0.052200  1.316100  0.724500  1
  H  H98  1  -0.474800  0.325400  0.746700  1
  H  H99  1  -0.586700  0.427800  0.541400  1
  H  H100  1  -0.530400  -0.037100  0.630800  1
  H  H101  1  -0.262400  0.487800  0.711700  1
  H  H102  1  -0.315000  0.480300  0.788500  1
  H  H103  1  -0.624800  0.552600  0.674200  1
  H  H104  1  -0.703400  0.610300  0.604900  1
  H  H105  1  -0.329400  -0.040100  0.557100  1
  H  H106  1  -0.413400  -0.232900  0.572700  1
  H  H107  1  -0.474800  0.174600  0.246700  1
  H  H108  1  -0.586700  0.072200  0.041400  1
  H  H109  1  -0.530400  0.537100  0.130800  1
  H  H110  1  -0.262400  0.012200  0.211700  1
  H  H111  1  -0.315000  0.019700  0.288500  1
  H  H112  1  -0.624800  -0.052600  0.174200  1
  H  H113  1  -0.703400  -0.110300  0.104900  1
  H  H114  1  -0.329400  0.540100  0.057100  1
  H  H115  1  -0.413400  0.732900  0.072700  1
  H  H116  1  -0.165700  -0.226300  0.118500  1
  H  H117  1  -0.191800  0.385800  -0.024700  1
  H  H118  1  0.191800  -0.385800  0.024700  1
  H  H119  1  0.165700  0.226300  -0.118500  1
  H  H120  1  -0.152700  -0.533700  0.190200  1
  H  H121  1  -0.204700  0.694300  -0.095500  1
  H  H122  1  -0.052200  -0.816100  0.224500  1
  H  H123  1  0.204700  -0.694300  0.095500  1
  H  H124  1  0.152700  0.533700  -0.190200  1
  H  H125  1  -0.127400  0.896600  -0.176600  1
  H  H126  1  0.127400  -0.896600  0.176600  1
  H  H127  1  0.052200  0.816100  -0.224500  1
  H  H128  1  0.474800  -0.174600  -0.246700  1
  H  H129  1  0.586700  -0.072200  -0.041400  1
  H  H130  1  0.530400  -0.537100  -0.130800  1
  H  H131  1  0.262400  -0.012200  -0.211700  1
  H  H132  1  0.315000  -0.019700  -0.288500  1
  H  H133  1  0.624800  0.052600  -0.174200  1
  H  H134  1  0.703400  0.110300  -0.104900  1
  H  H135  1  0.329400  -0.540100  -0.057100  1
  H  H136  1  0.413400  -0.732900  -0.072700  1
  Si  Si137  1  0.441400  0.705030  0.375610  1.0
  Si  Si138  1  -0.441400  0.294970  0.624390  1
  Si  Si139  1  -0.441400  0.205030  0.124390  1.0
  Si  Si140  1  0.441400  -0.205030  -0.124390  1
