# generated using pymatgen
data_Si2C45(SF)2
_symmetry_space_group_name_H-M   'P 1'
_cell_length_a   15.07200000
_cell_length_b   16.45400000
_cell_length_c   18.25200000
_cell_angle_alpha   90.00000000
_cell_angle_beta   103.06300000
_cell_angle_gamma   90.00000000
_symmetry_Int_Tables_number   1
_chemical_formula_structural   Si2C45(SF)2
_chemical_formula_sum   'Si8 C180 S8 F8'
_cell_volume   4409.26547575
_cell_formula_units_Z   4
loop_
 _symmetry_equiv_pos_site_id
 _symmetry_equiv_pos_as_xyz
  1  'x, y, z'
loop_
 _atom_site_type_symbol
 _atom_site_label
 _atom_site_symmetry_multiplicity
 _atom_site_fract_x
 _atom_site_fract_y
 _atom_site_fract_z
 _atom_site_occupancy
  C  C1  1  0.843100  0.752400  0.575600  1
  C  C2  1  0.881000  0.819400  0.732000  1
  C  C3  1  0.851400  0.934000  0.594900  1
  C  C4  1  1.025000  0.823300  0.634900  1
  C  C5  1  0.809300  0.699300  0.534500  1
  C  C6  1  0.784000  0.837000  0.734500  1
  C  C7  1  0.915000  0.734000  0.760300  1
  C  C8  1  0.887000  1.009000  0.641000  1
  C  C9  1  0.852000  0.941000  0.509000  1
  C  C10  1  1.091000  0.880000  0.691000  1
  C  C11  1  1.048000  0.820000  0.556000  1
  C  C12  1  0.769600  0.633100  0.483800  1
  C  C13  1  0.921000  0.720000  0.844000  1
  C  C14  1  0.777000  1.011000  0.468000  1
  C  C15  1  1.131000  0.768000  0.554000  1
  C  C16  1  0.827000  0.588800  0.447000  1
  C  C17  1  0.676300  0.615800  0.472800  1
  C  C18  1  0.921800  0.606100  0.458800  1
  C  C19  1  0.789100  0.526500  0.396400  1
  C  C20  1  0.638500  0.555500  0.419900  1
  C  C21  1  0.620200  0.657900  0.511900  1
  C  C22  1  0.974900  0.562300  0.424400  1
  C  C23  1  0.845700  0.478500  0.359700  1
  C  C24  1  0.693700  0.511800  0.381100  1
  C  C25  1  0.541200  0.538300  0.404100  1
  C  C26  1  0.527700  0.638300  0.498100  1
  C  C27  1  0.938600  0.496000  0.373900  1
  C  C28  1  0.653500  0.452900  0.325000  1
  C  C29  1  0.487900  0.582300  0.442700  1
  C  C30  1  0.452300  0.683100  0.542800  1
  C  C31  1  1.016000  0.447100  0.336200  1
  C  C32  1  1.093900  0.503000  0.377900  1
  C  C33  1  0.618000  0.403000  0.280000  1
  C  C34  1  0.369000  0.632200  0.492200  1
  C  C35  1  0.437000  0.351000  0.198000  1
  C  C36  1  0.550000  0.218000  0.290000  1
  C  C37  1  0.615000  0.290000  0.160000  1
  C  C38  1  0.376000  0.299000  0.135000  1
  C  C39  1  0.392000  0.364000  0.257000  1
  C  C40  1  0.503000  0.143000  0.245000  1
  C  C41  1  0.645000  0.198000  0.341000  1
  C  C42  1  0.712000  0.266000  0.176000  1
  C  C43  1  0.613000  0.377000  0.103000  1
  C  C44  1  0.303000  0.414000  0.253000  1
  C  C45  1  0.547000  0.424000  0.096000  1
  C  C46  1  0.156900  0.252400  -0.075600  1
  C  C47  1  0.119000  0.319400  -0.232000  1
  C  C48  1  0.148600  0.434000  -0.094900  1
  C  C49  1  -0.025000  0.323300  -0.134900  1
  C  C50  1  0.190700  0.199300  -0.034500  1
  C  C51  1  0.216000  0.337000  -0.234500  1
  C  C52  1  0.085000  0.234000  -0.260300  1
  C  C53  1  0.113000  0.509000  -0.141000  1
  C  C54  1  0.148000  0.441000  -0.009000  1
  C  C55  1  -0.091000  0.380000  -0.191000  1
  C  C56  1  -0.048000  0.320000  -0.056000  1
  C  C57  1  0.230400  0.133100  0.016200  1
  C  C58  1  0.079000  0.220000  -0.344000  1
  C  C59  1  0.223000  0.511000  0.032000  1
  C  C60  1  -0.131000  0.268000  -0.054000  1
  C  C61  1  0.173000  0.088800  0.053000  1
  C  C62  1  0.323700  0.115800  0.027200  1
  C  C63  1  0.078200  0.106100  0.041200  1
  C  C64  1  0.210900  0.026500  0.103600  1
  C  C65  1  0.361500  0.055500  0.080100  1
  C  C66  1  0.379800  0.157900  -0.011900  1
  C  C67  1  0.025100  0.062300  0.075600  1
  C  C68  1  0.154300  -0.021500  0.140300  1
  C  C69  1  0.306300  0.011800  0.118900  1
  C  C70  1  0.458800  0.038300  0.095900  1
  C  C71  1  0.472300  0.138300  0.001900  1
  C  C72  1  0.061400  -0.004000  0.126100  1
  C  C73  1  0.346500  -0.047100  0.175000  1
  C  C74  1  0.512100  0.082300  0.057300  1
  C  C75  1  0.547700  0.183100  -0.042800  1
  C  C76  1  -0.016000  -0.052900  0.163800  1
  C  C77  1  -0.093900  0.003000  0.122100  1
  C  C78  1  0.382000  -0.097000  0.220000  1
  C  C79  1  0.631000  0.132200  0.007800  1
  C  C80  1  0.563000  -0.149000  0.302000  1
  C  C81  1  0.450000  -0.282000  0.210000  1
  C  C82  1  0.385000  -0.210000  0.340000  1
  C  C83  1  0.624000  -0.201000  0.365000  1
  C  C84  1  0.608000  -0.136000  0.243000  1
  C  C85  1  0.497000  -0.357000  0.255000  1
  C  C86  1  0.355000  -0.302000  0.159000  1
  C  C87  1  0.288000  -0.234000  0.324000  1
  C  C88  1  0.387000  -0.123000  0.397000  1
  C  C89  1  0.697000  -0.086000  0.247000  1
  C  C90  1  0.453000  -0.076000  0.404000  1
  C  C91  1  1.156900  0.247600  0.424400  1
  C  C92  1  1.119000  0.180600  0.268000  1
  C  C93  1  1.148600  0.066000  0.405100  1
  C  C94  1  0.975000  0.176700  0.365100  1
  C  C95  1  1.190700  0.300700  0.465500  1
  C  C96  1  1.216000  0.163000  0.265500  1
  C  C97  1  1.085000  0.266000  0.239700  1
  C  C98  1  1.113000  -0.009000  0.359000  1
  C  C99  1  1.148000  0.059000  0.491000  1
  C  C100  1  0.909000  0.120000  0.309000  1
  C  C101  1  0.952000  0.180000  0.444000  1
  C  C102  1  1.230400  0.366900  0.516200  1
  C  C103  1  1.079000  0.280000  0.156000  1
  C  C104  1  1.223000  -0.011000  0.532000  1
  C  C105  1  0.869000  0.232000  0.446000  1
  C  C106  1  1.173000  0.411200  0.553000  1
  C  C107  1  1.323700  0.384200  0.527200  1
  C  C108  1  1.078200  0.393900  0.541200  1
  C  C109  1  1.210900  0.473500  0.603600  1
  C  C110  1  1.361500  0.444500  0.580100  1
  C  C111  1  1.379800  0.342100  0.488100  1
  C  C112  1  1.025100  0.437700  0.575600  1
  C  C113  1  1.154300  0.521500  0.640300  1
  C  C114  1  1.306300  0.488200  0.618900  1
  C  C115  1  1.458800  0.461700  0.595900  1
  C  C116  1  1.472300  0.361700  0.501900  1
  C  C117  1  1.061400  0.504000  0.626100  1
  C  C118  1  1.346500  0.547100  0.675000  1
  C  C119  1  1.512100  0.417700  0.557300  1
  C  C120  1  1.547700  0.316900  0.457200  1
  C  C121  1  0.984000  0.552900  0.663800  1
  C  C122  1  0.906100  0.497000  0.622100  1
  C  C123  1  1.382000  0.597000  0.720000  1
  C  C124  1  1.631000  0.367800  0.507800  1
  C  C125  1  1.563000  0.649000  0.802000  1
  C  C126  1  1.450000  0.782000  0.710000  1
  C  C127  1  1.385000  0.710000  0.840000  1
  C  C128  1  1.624000  0.701000  0.865000  1
  C  C129  1  1.608000  0.636000  0.743000  1
  C  C130  1  1.497000  0.857000  0.755000  1
  C  C131  1  1.355000  0.802000  0.659000  1
  C  C132  1  1.288000  0.734000  0.824000  1
  C  C133  1  1.387000  0.623000  0.897000  1
  C  C134  1  1.697000  0.586000  0.747000  1
  C  C135  1  1.453000  0.576000  0.904000  1
  C  C136  1  0.843100  0.747600  0.075600  1
  C  C137  1  0.881000  0.680600  0.232000  1
  C  C138  1  0.851400  0.566000  0.094900  1
  C  C139  1  1.025000  0.676700  0.134900  1
  C  C140  1  0.809300  0.800700  0.034500  1
  C  C141  1  0.784000  0.663000  0.234500  1
  C  C142  1  0.915000  0.766000  0.260300  1
  C  C143  1  0.887000  0.491000  0.141000  1
  C  C144  1  0.852000  0.559000  0.009000  1
  C  C145  1  1.091000  0.620000  0.191000  1
  C  C146  1  1.048000  0.680000  0.056000  1
  C  C147  1  0.769600  0.866900  -0.016200  1
  C  C148  1  0.921000  0.780000  0.344000  1
  C  C149  1  0.777000  0.489000  -0.032000  1
  C  C150  1  1.131000  0.732000  0.054000  1
  C  C151  1  0.827000  0.911200  -0.053000  1
  C  C152  1  0.676300  0.884200  -0.027200  1
  C  C153  1  0.921800  0.893900  -0.041200  1
  C  C154  1  0.789100  0.973500  -0.103600  1
  C  C155  1  0.638500  0.944500  -0.080100  1
  C  C156  1  0.620200  0.842100  0.011900  1
  C  C157  1  0.974900  0.937700  -0.075600  1
  C  C158  1  0.845700  1.021500  -0.140300  1
  C  C159  1  0.693700  0.988200  -0.118900  1
  C  C160  1  0.541200  0.961700  -0.095900  1
  C  C161  1  0.527700  0.861700  -0.001900  1
  C  C162  1  0.938600  1.004000  -0.126100  1
  C  C163  1  0.653500  1.047100  -0.175000  1
  C  C164  1  0.487900  0.917700  -0.057300  1
  C  C165  1  0.452300  0.816900  0.042800  1
  C  C166  1  1.016000  1.052900  -0.163800  1
  C  C167  1  1.093900  0.997000  -0.122100  1
  C  C168  1  0.618000  1.097000  -0.220000  1
  C  C169  1  0.369000  0.867800  -0.007800  1
  C  C170  1  0.437000  1.149000  -0.302000  1
  C  C171  1  0.550000  1.282000  -0.210000  1
  C  C172  1  0.615000  1.210000  -0.340000  1
  C  C173  1  0.376000  1.201000  -0.365000  1
  C  C174  1  0.392000  1.136000  -0.243000  1
  C  C175  1  0.503000  1.357000  -0.255000  1
  C  C176  1  0.645000  1.302000  -0.159000  1
  C  C177  1  0.712000  1.234000  -0.324000  1
  C  C178  1  0.613000  1.123000  -0.397000  1
  C  C179  1  0.303000  1.086000  -0.247000  1
  C  C180  1  0.547000  1.076000  -0.404000  1
  F  F181  1  1.178900  0.490200  0.366300  1
  F  F182  1  0.286700  0.646200  0.506500  1
  F  F183  1  -0.178900  -0.009800  0.133700  1
  F  F184  1  0.713300  0.146200  -0.006500  1
  F  F185  1  0.821100  0.509800  0.633700  1
  F  F186  1  1.713300  0.353800  0.493500  1
  F  F187  1  1.178900  1.009800  -0.133700  1
  F  F188  1  0.286700  0.853800  0.006500  1
  S  S189  1  1.088400  0.575700  0.429700  1
  S  S190  1  0.374000  0.568600  0.429700  1
  S  S191  1  -0.088400  0.075700  0.070300  1
  S  S192  1  0.626000  0.068600  0.070300  1
  S  S193  1  0.911600  0.424300  0.570300  1
  S  S194  1  1.626000  0.431400  0.570300  1
  S  S195  1  1.088400  0.924300  -0.070300  1
  S  S196  1  0.374000  0.931400  -0.070300  1
  Si  Si197  1  0.902300  0.837000  0.634300  1.0
  Si  Si198  1  0.559000  0.311300  0.229200  1
  Si  Si199  1  0.097700  0.337000  -0.134300  1.0
  Si  Si200  1  0.441000  -0.188700  0.270800  1
  Si  Si201  1  1.097700  0.163000  0.365700  1.0
  Si  Si202  1  1.441000  0.688700  0.770800  1
  Si  Si203  1  0.902300  0.663000  0.134300  1.0
  Si  Si204  1  0.559000  1.188700  -0.270800  1
