# generated using pymatgen
data_SiH21C18S
_symmetry_space_group_name_H-M   'P 1'
_cell_length_a   7.14190000
_cell_length_b   10.32100000
_cell_length_c   11.24000000
_cell_angle_alpha   83.80800000
_cell_angle_beta   89.24000000
_cell_angle_gamma   81.27700000
_symmetry_Int_Tables_number   1
_chemical_formula_structural   SiH21C18S
_chemical_formula_sum   'Si2 H42 C36 S2'
_cell_volume   814.15275677
_cell_formula_units_Z   2
loop_
 _symmetry_equiv_pos_site_id
 _symmetry_equiv_pos_as_xyz
  1  'x, y, z'
loop_
 _atom_site_type_symbol
 _atom_site_label
 _atom_site_symmetry_multiplicity
 _atom_site_fract_x
 _atom_site_fract_y
 _atom_site_fract_z
 _atom_site_occupancy
  C  C1  1  0.840600  0.195700  0.289250  1
  C  C2  1  0.524100  0.206100  0.463900  1
  C  C3  1  0.900600  0.294300  0.530310  1
  C  C4  1  0.644600  0.461100  0.337000  1
  C  C5  1  0.892600  0.137200  0.204050  1
  C  C6  1  0.378200  0.204000  0.366300  1
  C  C7  1  0.989700  0.159800  0.592300  1
  C  C8  1  0.800700  0.524900  0.268100  1
  C  C9  1  0.948300  0.067300  0.101420  1
  C  C10  1  1.107600  0.096700  0.033580  1
  C  C11  1  0.839600  -0.027700  0.070370  1
  C  C12  1  1.216600  0.192000  0.064580  1
  C  C13  1  1.160400  0.027700  -0.070370  1
  C  C14  1  0.892400  -0.096700  -0.033580  1
  C  C15  1  0.679000  -0.056900  0.137090  1
  C  C16  1  1.370700  0.217900  -0.001990  1
  C  C17  1  1.051700  -0.067300  -0.101420  1
  C  C18  1  1.321000  0.056900  -0.137090  1
  C  C19  1  0.783400  -0.192000  -0.064580  1
  C  C20  1  0.577000  -0.148700  0.105100  1
  C  C21  1  1.509200  0.309100  0.007100  1
  C  C22  1  1.423000  0.148700  -0.105100  1
  C  C23  1  1.107400  -0.137200  -0.204050  1
  C  C24  1  0.629300  -0.217900  0.001990  1
  C  C25  1  1.644400  0.311800  -0.073600  1
  C  C26  1  1.159400  -0.195700  -0.289250  1
  C  C27  1  0.490800  -0.309100  -0.007100  1
  C  C28  1  0.355600  -0.311800  0.073600  1
  C  C29  1  1.802400  0.392700  -0.089100  1
  C  C30  1  0.197600  -0.392700  0.089100  1
  C  C31  1  1.475900  -0.206100  -0.463900  1
  C  C32  1  1.099400  -0.294300  -0.530310  1
  C  C33  1  1.355400  -0.461100  -0.337000  1
  C  C34  1  1.621800  -0.204000  -0.366300  1
  C  C35  1  1.010300  -0.159800  -0.592300  1
  C  C36  1  1.199300  -0.524900  -0.268100  1
  H  H37  1  0.572800  0.114400  0.496500  1
  H  H38  1  0.461400  0.252200  0.530000  1
  H  H39  1  1.003700  0.341100  0.496600  1
  H  H40  1  0.835400  0.346700  0.591600  1
  H  H41  1  0.539500  0.458500  0.281200  1
  H  H42  1  0.594200  0.516800  0.400000  1
  H  H43  1  0.309200  0.293200  0.346200  1
  H  H44  1  0.288800  0.144500  0.395100  1
  H  H45  1  0.442900  0.173100  0.294900  1
  H  H46  1  0.889500  0.111900  0.626200  1
  H  H47  1  1.074200  0.172800  0.656600  1
  H  H48  1  1.062300  0.108800  0.533900  1
  H  H49  1  0.902100  0.532600  0.323600  1
  H  H50  1  0.747200  0.612800  0.230900  1
  H  H51  1  0.852200  0.470000  0.205900  1
  H  H52  1  1.182200  0.238300  0.132100  1
  H  H53  1  0.642100  -0.011900  0.205000  1
  H  H54  1  1.357900  0.011900  -0.205000  1
  H  H55  1  0.817800  -0.238300  -0.132100  1
  H  H56  1  1.501000  0.364500  0.069700  1
  H  H57  1  0.499000  -0.364500  -0.069700  1
  H  H58  1  1.804300  0.444300  -0.021000  1
  H  H59  1  1.782700  0.452300  -0.163300  1
  H  H60  1  1.923400  0.334100  -0.093100  1
  H  H61  1  0.195700  -0.444300  0.021000  1
  H  H62  1  0.217300  -0.452300  0.163300  1
  H  H63  1  0.076600  -0.334100  0.093100  1
  H  H64  1  1.427200  -0.114400  -0.496500  1
  H  H65  1  1.538600  -0.252200  -0.530000  1
  H  H66  1  0.996300  -0.341100  -0.496600  1
  H  H67  1  1.164600  -0.346700  -0.591600  1
  H  H68  1  1.460500  -0.458500  -0.281200  1
  H  H69  1  1.405800  -0.516800  -0.400000  1
  H  H70  1  1.690800  -0.293200  -0.346200  1
  H  H71  1  1.711200  -0.144500  -0.395100  1
  H  H72  1  1.557100  -0.173100  -0.294900  1
  H  H73  1  1.110500  -0.111900  -0.626200  1
  H  H74  1  0.925800  -0.172800  -0.656600  1
  H  H75  1  0.937700  -0.108800  -0.533900  1
  H  H76  1  1.097900  -0.532600  -0.323600  1
  H  H77  1  1.252800  -0.612800  -0.230900  1
  H  H78  1  1.147800  -0.470000  -0.205900  1
  S  S79  1  0.374500  -0.200900  0.181680  1
  S  S80  1  1.625500  0.200900  -0.181680  1
  Si  Si81  1  0.727950  0.290140  0.408060  1.0
  Si  Si82  1  1.272050  -0.290140  -0.408060  1
