# generated using pymatgen
data_SiH26C21O2
_symmetry_space_group_name_H-M   'P 1'
_cell_length_a   7.28150000
_cell_length_b   8.26650000
_cell_length_c   17.46610000
_cell_angle_alpha   88.94600000
_cell_angle_beta   79.38400000
_cell_angle_gamma   66.08200000
_symmetry_Int_Tables_number   1
_chemical_formula_structural   SiH26C21O2
_chemical_formula_sum   'Si2 H52 C42 O4'
_cell_volume   942.74210119
_cell_formula_units_Z   2
loop_
 _symmetry_equiv_pos_site_id
 _symmetry_equiv_pos_as_xyz
  1  'x, y, z'
loop_
 _atom_site_type_symbol
 _atom_site_label
 _atom_site_symmetry_multiplicity
 _atom_site_fract_x
 _atom_site_fract_y
 _atom_site_fract_z
 _atom_site_occupancy
  C  C1  1  0.203100  0.668300  0.723200  1
  C  C2  1  0.251100  0.659200  0.888800  1
  C  C3  1  -0.183400  0.746200  0.843600  1
  C  C4  1  0.012800  1.014000  0.818600  1
  C  C5  1  0.296700  0.609000  0.659500  1
  C  C6  1  0.324400  0.457000  0.886900  1
  C  C7  1  0.181300  0.742400  0.971900  1
  C  C8  1  -0.155100  0.560200  0.835800  1
  C  C9  1  -0.321500  0.834100  0.920200  1
  C  C10  1  -0.132900  1.110600  0.763000  1
  C  C11  1  0.207000  1.045200  0.797800  1
  C  C12  1  0.405800  0.543800  0.581600  1
  C  C13  1  0.393700  0.673200  0.526900  1
  C  C14  1  0.513600  0.362000  0.561400  1
  C  C15  1  0.286100  0.855500  0.547400  1
  C  C16  1  0.494500  0.618000  0.447400  1
  C  C17  1  0.616300  0.304600  0.481500  1
  C  C18  1  0.524400  0.232500  0.618700  1
  C  C19  1  0.272200  0.984000  0.494300  1
  C  C20  1  0.479900  0.749800  0.393500  1
  C  C21  1  0.606100  0.432400  0.425500  1
  C  C22  1  0.726100  0.120000  0.459900  1
  C  C23  1  0.631700  0.060000  0.593800  1
  C  C24  1  0.160900  1.170100  0.517900  1
  C  C25  1  0.372800  0.929000  0.414200  1
  C  C26  1  0.712000  0.380500  0.346000  1
  C  C27  1  0.729800  0.005000  0.516700  1
  C  C28  1  0.153600  1.288100  0.462600  1
  C  C29  1  0.357500  1.065000  0.360000  1
  C  C30  1  0.806100  0.325200  0.280700  1
  C  C31  1  0.787200  -0.238200  0.584100  1
  C  C32  1  0.253800  1.232600  0.382800  1
  C  C33  1  0.094800  1.533800  0.394700  1
  C  C34  1  0.988800  -0.015100  0.180200  1
  C  C35  1  1.184400  0.254700  0.155800  1
  C  C36  1  0.741800  0.344900  0.116300  1
  C  C37  1  0.791800  -0.042200  0.204000  1
  C  C38  1  1.141100  -0.110000  0.234100  1
  C  C39  1  1.317500  0.150500  0.080500  1
  C  C40  1  1.151900  0.444800  0.152000  1
  C  C41  1  0.657500  0.546000  0.124300  1
  C  C42  1  0.810700  0.275700  0.030700  1
  H  H43  1  0.376100  0.680100  0.867100  1
  H  H44  1  -0.259900  0.807800  0.802200  1
  H  H45  1  -0.056700  1.069900  0.872300  1
  H  H46  1  0.437700  0.406400  0.915100  1
  H  H47  1  0.371000  0.408400  0.832600  1
  H  H48  1  0.211200  0.426900  0.911800  1
  H  H49  1  0.061300  0.722600  0.997500  1
  H  H50  1  0.145400  0.870100  0.970600  1
  H  H51  1  0.292300  0.688100  1.000900  1
  H  H52  1  -0.170800  0.514900  0.887700  1
  H  H53  1  -0.017800  0.489100  0.805900  1
  H  H54  1  -0.257900  0.552900  0.808500  1
  H  H55  1  -0.455100  0.830100  0.922800  1
  H  H56  1  -0.339100  0.957800  0.924300  1
  H  H57  1  -0.259800  0.771300  0.963400  1
  H  H58  1  -0.168000  1.238100  0.768000  1
  H  H59  1  -0.258000  1.089900  0.776500  1
  H  H60  1  -0.065400  1.065400  0.709100  1
  H  H61  1  0.281000  0.990000  0.745700  1
  H  H62  1  0.293900  0.992900  0.836200  1
  H  H63  1  0.171600  1.173000  0.798000  1
  H  H64  1  0.219700  0.892100  0.600100  1
  H  H65  1  0.458800  0.266700  0.671700  1
  H  H66  1  0.546600  0.713900  0.340700  1
  H  H67  1  0.794300  0.079000  0.407600  1
  H  H68  1  0.094900  1.208500  0.570600  1
  H  H69  1  0.423600  1.032100  0.307000  1
  H  H70  1  0.918200  -0.305800  0.601300  1
  H  H71  1  0.715600  -0.317100  0.582400  1
  H  H72  1  0.166200  1.612900  0.396400  1
  H  H73  1  -0.036600  1.601500  0.377700  1
  H  H74  1  1.053700  -0.068500  0.125900  1
  H  H75  1  1.260700  0.205300  0.198900  1
  H  H76  1  0.622000  0.315600  0.136600  1
  H  H77  1  0.821700  -0.168300  0.196700  1
  H  H78  1  0.693800  0.026500  0.171600  1
  H  H79  1  0.733000  -0.002300  0.259000  1
  H  H80  1  1.087300  -0.051100  0.286600  1
  H  H81  1  1.273200  -0.105100  0.213400  1
  H  H82  1  1.159600  -0.234100  0.236600  1
  H  H83  1  1.238100  0.181800  0.038700  1
  H  H84  1  1.363200  0.023300  0.087800  1
  H  H85  1  1.436900  0.179200  0.066300  1
  H  H86  1  1.284900  0.452700  0.141000  1
  H  H87  1  1.073100  0.509000  0.202000  1
  H  H88  1  1.076500  0.497400  0.110400  1
  H  H89  1  0.764400  0.584700  0.100400  1
  H  H90  1  0.613200  0.586100  0.179700  1
  H  H91  1  0.540600  0.596900  0.098000  1
  H  H92  1  0.696800  0.331700  0.003200  1
  H  H93  1  0.853900  0.146900  0.027500  1
  H  H94  1  0.925700  0.304100  0.006600  1
  O  O95  1  0.660100  -0.083200  0.637500  1
  O  O96  1  0.824400  -0.173600  0.508200  1
  O  O97  1  0.059300  1.468000  0.469800  1
  O  O98  1  0.220300  1.381000  0.341600  1
  Si  Si99  1  0.065000  0.771000  0.821900  1.0
  Si  Si100  1  0.934300  0.229400  0.180200  1
