# generated using pymatgen
data_SiH25C22
_symmetry_space_group_name_H-M   'P 1'
_cell_length_a   7.17460000
_cell_length_b   7.84620000
_cell_length_c   16.41970000
_cell_angle_alpha   92.30700000
_cell_angle_beta   101.95600000
_cell_angle_gamma   92.83500000
_symmetry_Int_Tables_number   1
_chemical_formula_structural   SiH25C22
_chemical_formula_sum   'Si2 H50 C44'
_cell_volume   901.95480372
_cell_formula_units_Z   2
loop_
 _symmetry_equiv_pos_site_id
 _symmetry_equiv_pos_as_xyz
  1  'x, y, z'
loop_
 _atom_site_type_symbol
 _atom_site_label
 _atom_site_symmetry_multiplicity
 _atom_site_fract_x
 _atom_site_fract_y
 _atom_site_fract_z
 _atom_site_occupancy
  C  C1  1  0.561680  0.694050  0.737310  1
  C  C2  1  0.315370  0.746920  0.858020  1
  C  C3  1  0.747520  0.714570  0.921500  1
  C  C4  1  0.601840  1.036240  0.829670  1
  C  C5  1  0.547890  0.633470  0.667220  1
  C  C6  1  0.147610  0.712230  0.784920  1
  C  C7  1  0.221220  0.568370  0.836100  1
  C  C8  1  0.723900  0.520070  0.924090  1
  C  C9  1  0.752400  0.801300  1.007170  1
  C  C10  1  0.442900  1.110160  0.765760  1
  C  C11  1  0.796370  1.076490  0.807960  1
  C  C12  1  0.525510  0.565000  0.583780  1
  C  C13  1  0.664140  0.609390  0.536770  1
  C  C14  1  0.362660  0.456820  0.548600  1
  C  C15  1  0.827800  0.714200  0.570920  1
  C  C16  1  0.637340  0.543180  0.451400  1
  C  C17  1  0.335860  0.390610  0.463230  1
  C  C18  1  0.222960  0.412920  0.594110  1
  C  C19  1  0.965770  0.754480  0.525850  1
  C  C20  1  0.474490  0.435000  0.416220  1
  C  C21  1  0.777040  0.587080  0.405890  1
  C  C22  1  0.172200  0.285800  0.429080  1
  C  C23  1  0.060810  0.310650  0.559320  1
  C  C24  1  1.133490  0.860210  0.560480  1
  C  C25  1  0.939190  0.689350  0.440680  1
  C  C26  1  0.452110  0.366530  0.332780  1
  C  C27  1  0.034230  0.245520  0.474150  1
  C  C28  1  -0.082750  0.268390  0.605170  1
  C  C29  1  1.266490  0.896200  0.514900  1
  C  C30  1  1.082750  0.731610  0.394830  1
  C  C31  1  0.438320  0.305950  0.262690  1
  C  C32  1  -0.133490  0.139790  0.439520  1
  C  C33  1  -0.240740  0.169040  0.569420  1
  C  C34  1  1.240740  0.830960  0.430580  1
  C  C35  1  -0.266490  0.103800  0.485100  1
  C  C36  1  0.684630  0.253080  0.141980  1
  C  C37  1  0.252480  0.285430  0.078500  1
  C  C38  1  0.398160  -0.036240  0.170330  1
  C  C39  1  0.852390  0.287770  0.215080  1
  C  C40  1  0.778780  0.431630  0.163900  1
  C  C41  1  0.276100  0.479930  0.075910  1
  C  C42  1  0.247600  0.198700  -0.007170  1
  C  C43  1  0.557100  -0.110160  0.234240  1
  C  C44  1  0.203630  -0.076490  0.192040  1
  H  H45  1  0.285400  0.806400  0.908400  1
  H  H46  1  0.873500  0.742500  0.906600  1
  H  H47  1  0.603400  1.093900  0.885300  1
  H  H48  1  0.022900  0.754200  0.790700  1
  H  H49  1  0.173400  0.716000  0.728100  1
  H  H50  1  0.292600  0.483100  0.810900  1
  H  H51  1  0.142100  0.521400  0.873600  1
  H  H52  1  0.830100  0.479300  0.964800  1
  H  H53  1  0.723100  0.467600  0.868800  1
  H  H54  1  0.603200  0.488700  0.940300  1
  H  H55  1  0.628900  0.779500  1.022700  1
  H  H56  1  0.778100  0.924700  1.005000  1
  H  H57  1  0.853200  0.755200  1.048700  1
  H  H58  1  0.471100  1.233000  0.762900  1
  H  H59  1  0.320700  1.091400  0.782700  1
  H  H60  1  0.435600  1.053300  0.710900  1
  H  H61  1  0.800000  1.019000  0.754300  1
  H  H62  1  0.897300  1.036100  0.851400  1
  H  H63  1  0.816300  1.200200  0.804300  1
  H  H64  1  0.844600  0.759100  0.626700  1
  H  H65  1  0.240300  0.454700  0.650400  1
  H  H66  1  0.759700  0.545300  0.349600  1
  H  H67  1  0.155400  0.240900  0.373300  1
  H  H68  1  1.152100  0.905900  0.616200  1
  H  H69  1  -0.067200  0.310500  0.661400  1
  H  H70  1  1.378000  0.965500  0.539300  1
  H  H71  1  1.067200  0.689500  0.338600  1
  H  H72  1  -0.152100  0.094100  0.383800  1
  H  H73  1  -0.335000  0.142600  0.600700  1
  H  H74  1  1.335000  0.857400  0.399300  1
  H  H75  1  -0.378000  0.034500  0.460700  1
  H  H76  1  0.714600  0.193600  0.091600  1
  H  H77  1  0.126500  0.257500  0.093400  1
  H  H78  1  0.396600  -0.093900  0.114700  1
  H  H79  1  0.977100  0.245800  0.209300  1
  H  H80  1  0.826600  0.284000  0.271900  1
  H  H81  1  0.707400  0.516900  0.189100  1
  H  H82  1  0.857900  0.478600  0.126400  1
  H  H83  1  0.169900  0.520700  0.035200  1
  H  H84  1  0.276900  0.532400  0.131200  1
  H  H85  1  0.396800  0.511300  0.059700  1
  H  H86  1  0.371100  0.220500  -0.022700  1
  H  H87  1  0.221900  0.075300  -0.005000  1
  H  H88  1  0.146800  0.244800  -0.048700  1
  H  H89  1  0.528900  -0.233000  0.237100  1
  H  H90  1  0.679300  -0.091400  0.217300  1
  H  H91  1  0.564400  -0.053300  0.289100  1
  H  H92  1  0.200000  -0.019000  0.245700  1
  H  H93  1  0.102700  -0.036100  0.148600  1
  H  H94  1  0.183700  -0.200200  0.195700  1
  Si  Si95  1  0.557100  0.799630  0.838683  1.0
  Si  Si96  1  0.442900  0.200370  0.161317  1
