# generated using pymatgen
data_SiH33C29S3
_symmetry_space_group_name_H-M   'P 1'
_cell_length_a   10.15470000
_cell_length_b   10.38530000
_cell_length_c   14.13530000
_cell_angle_alpha   78.72300000
_cell_angle_beta   82.09000000
_cell_angle_gamma   69.28500000
_symmetry_Int_Tables_number   1
_chemical_formula_structural   SiH33C29S3
_chemical_formula_sum   'Si2 H66 C58 S6'
_cell_volume   1363.59926630
_cell_formula_units_Z   2
loop_
 _symmetry_equiv_pos_site_id
 _symmetry_equiv_pos_as_xyz
  1  'x, y, z'
loop_
 _atom_site_type_symbol
 _atom_site_label
 _atom_site_symmetry_multiplicity
 _atom_site_fract_x
 _atom_site_fract_y
 _atom_site_fract_z
 _atom_site_occupancy
  C  C1  1  0.258070  0.719880  0.276410  1
  C  C2  1  0.080510  1.020230  0.209260  1
  C  C3  1  0.209630  0.814130  0.064090  1
  C  C4  1  -0.030320  0.779350  0.213490  1
  C  C5  1  0.333970  0.647680  0.338720  1
  C  C6  1  0.203000  1.074300  0.205800  1
  C  C7  1  0.245300  0.666780  0.041250  1
  C  C8  1  -0.147720  0.861310  0.145300  1
  C  C9  1  0.419130  0.571090  0.417530  1
  C  C10  1  0.157000  1.230500  0.208200  1
  C  C11  1  0.310800  0.649800  -0.061370  1
  C  C12  1  -0.266980  0.801710  0.159640  1
  C  C13  1  0.417210  0.440310  0.465940  1
  C  C14  1  0.504260  0.629800  0.452630  1
  C  C15  1  0.276500  1.285000  0.191300  1
  C  C16  1  0.347500  0.502400  -0.081120  1
  C  C17  1  -0.391800  0.889500  0.100240  1
  C  C18  1  0.495740  0.370200  0.547370  1
  C  C19  1  0.582790  0.559690  0.534060  1
  C  C20  1  0.527200  0.760000  0.418500  1
  C  C21  1  0.580870  0.428910  0.582470  1
  C  C22  1  0.472800  0.240000  0.581500  1
  C  C23  1  0.382760  0.214800  0.531590  1
  C  C24  1  0.617240  0.785200  0.468410  1
  C  C25  1  0.666030  0.352320  0.661280  1
  C  C26  1  0.336660  0.094310  0.548910  1
  C  C27  1  0.663340  0.905690  0.451090  1
  C  C28  1  0.741930  0.280120  0.723590  1
  C  C29  1  0.255100  0.061400  0.497120  1
  C  C30  1  0.744900  0.938600  0.502880  1
  C  C31  1  0.228900  -0.065000  0.535610  1
  C  C32  1  0.300200  -0.131500  0.621300  1
  C  C33  1  0.771100  1.065000  0.464390  1
  C  C34  1  0.699800  1.131500  0.378700  1
  C  C35  1  0.919490  -0.020230  0.790740  1
  C  C36  1  0.790370  0.185870  0.935910  1
  C  C37  1  1.030320  0.220650  0.786510  1
  C  C38  1  0.150300  -0.128700  0.499900  1
  C  C39  1  0.295900  -0.259100  0.671200  1
  C  C40  1  0.849700  1.128700  0.500100  1
  C  C41  1  0.704100  1.259100  0.328800  1
  C  C42  1  0.797000  -0.074300  0.794200  1
  C  C43  1  0.754700  0.333220  0.958750  1
  C  C44  1  1.147720  0.138690  0.854700  1
  C  C45  1  0.142400  -0.254000  0.551400  1
  C  C46  1  0.215200  -0.321200  0.636300  1
  C  C47  1  0.857600  1.254000  0.448600  1
  C  C48  1  0.784800  1.321200  0.363700  1
  C  C49  1  0.843000  -0.230500  0.791800  1
  C  C50  1  0.689200  0.350200  1.061370  1
  C  C51  1  1.266980  0.198290  0.840360  1
  C  C52  1  0.192600  -0.452000  0.673600  1
  C  C53  1  0.807400  1.452000  0.326400  1
  C  C54  1  0.723500  -0.285000  0.808700  1
  C  C55  1  0.652500  0.497600  1.081120  1
  C  C56  1  1.391800  0.110500  0.899760  1
  C  C57  1  0.105700  -0.477500  0.622300  1
  C  C58  1  0.894300  1.477500  0.377700  1
  H  H59  1  0.016300  1.081000  0.159500  1
  H  H60  1  0.027000  1.029800  0.273000  1
  H  H61  1  0.143400  0.880900  0.017500  1
  H  H62  1  0.297100  0.838100  0.054800  1
  H  H63  1  -0.000500  0.679300  0.207900  1
  H  H64  1  -0.069400  0.789300  0.280900  1
  H  H65  1  0.259900  1.023300  0.261500  1
  H  H66  1  0.264500  1.053700  0.146000  1
  H  H67  1  0.311700  0.600000  0.087700  1
  H  H68  1  0.157800  0.642700  0.050600  1
  H  H69  1  -0.186300  0.959500  0.156400  1
  H  H70  1  -0.107000  0.860600  0.077500  1
  H  H71  1  0.089600  1.281100  0.158100  1
  H  H72  1  0.107300  1.249500  0.271900  1
  H  H73  1  0.243800  0.714800  -0.108100  1
  H  H74  1  0.397500  0.675200  -0.071400  1
  H  H75  1  -0.300400  0.792900  0.229000  1
  H  H76  1  -0.229900  0.706900  0.142100  1
  H  H77  1  0.346600  1.231800  0.238200  1
  H  H78  1  0.241500  1.383500  0.199100  1
  H  H79  1  0.320200  1.275800  0.125600  1
  H  H80  1  0.409800  0.437100  -0.032800  1
  H  H81  1  0.395600  0.494900  -0.145900  1
  H  H82  1  0.260800  0.479900  -0.077400  1
  H  H83  1  -0.430300  0.983100  0.117900  1
  H  H84  1  -0.464900  0.845700  0.113300  1
  H  H85  1  -0.360400  0.896000  0.031300  1
  H  H86  1  0.482500  0.823600  0.364900  1
  H  H87  1  0.517500  0.176400  0.635100  1
  H  H88  1  0.217800  0.118400  0.439100  1
  H  H89  1  0.782200  0.881600  0.560900  1
  H  H90  1  0.983700  -0.081000  0.840500  1
  H  H91  1  0.973000  -0.029800  0.727000  1
  H  H92  1  0.856600  0.119100  0.982500  1
  H  H93  1  0.702900  0.161900  0.945200  1
  H  H94  1  1.000500  0.320700  0.792100  1
  H  H95  1  1.069400  0.210700  0.719100  1
  H  H96  1  0.103600  -0.087500  0.442100  1
  H  H97  1  0.346300  -0.302700  0.727200  1
  H  H98  1  0.896400  1.087500  0.557900  1
  H  H99  1  0.653700  1.302700  0.272800  1
  H  H100  1  0.740100  -0.023300  0.738500  1
  H  H101  1  0.735500  -0.053700  0.854000  1
  H  H102  1  0.688300  0.400000  0.912300  1
  H  H103  1  0.842200  0.357300  0.949400  1
  H  H104  1  1.186300  0.040500  0.843600  1
  H  H105  1  1.107000  0.139400  0.922500  1
  H  H106  1  0.910400  -0.281100  0.841900  1
  H  H107  1  0.892700  -0.249500  0.728100  1
  H  H108  1  0.756200  0.285200  1.108100  1
  H  H109  1  0.602500  0.324800  1.071400  1
  H  H110  1  1.300400  0.207100  0.771000  1
  H  H111  1  1.229900  0.293100  0.857900  1
  H  H112  1  0.235000  -0.513400  0.728700  1
  H  H113  1  0.765000  1.513400  0.271300  1
  H  H114  1  0.653400  -0.231800  0.761800  1
  H  H115  1  0.758500  -0.383500  0.800900  1
  H  H116  1  0.679800  -0.275800  0.874400  1
  H  H117  1  0.590200  0.562900  1.032800  1
  H  H118  1  0.604400  0.505100  1.145900  1
  H  H119  1  0.739200  0.520100  1.077400  1
  H  H120  1  1.430300  0.016900  0.882100  1
  H  H121  1  1.464900  0.154300  0.886700  1
  H  H122  1  1.360400  0.104000  0.968700  1
  H  H123  1  0.077900  -0.557800  0.638900  1
  H  H124  1  0.922100  1.557800  0.361100  1
  S  S125  1  0.321430  0.348460  0.434650  1
  S  S126  1  0.678570  0.651540  0.565350  1
  S  S127  1  0.390940  -0.032500  0.650910  1
  S  S128  1  0.609060  1.032500  0.349090  1
  S  S129  1  0.048630  -0.351670  0.523450  1
  S  S130  1  0.951370  1.351670  0.476550  1
  Si  Si131  1  0.128840  0.835140  0.189860  1.0
  Si  Si132  1  0.871160  0.164860  0.810140  1
