# generated using pymatgen
data_SiH24C18I
_symmetry_space_group_name_H-M   'P 1'
_cell_length_a   9.36780000
_cell_length_b   10.39100000
_cell_length_c   10.45100000
_cell_angle_alpha   64.49120000
_cell_angle_beta   89.13900000
_cell_angle_gamma   79.15400000
_symmetry_Int_Tables_number   1
_chemical_formula_structural   SiH24C18I
_chemical_formula_sum   'Si2 H48 C36 I2'
_cell_volume   899.23567249
_cell_formula_units_Z   2
loop_
 _symmetry_equiv_pos_site_id
 _symmetry_equiv_pos_as_xyz
  1  'x, y, z'
loop_
 _atom_site_type_symbol
 _atom_site_label
 _atom_site_symmetry_multiplicity
 _atom_site_fract_x
 _atom_site_fract_y
 _atom_site_fract_z
 _atom_site_occupancy
  C  C1  1  0.617100  0.239300  0.302300  1
  C  C2  1  0.812300  0.178700  0.091300  1
  C  C3  1  0.681000  -0.063400  0.346200  1
  C  C4  1  0.484600  0.177100  0.086400  1
  C  C5  1  0.585300  0.318000  0.360500  1
  C  C6  1  0.819800  0.127600  -0.027100  1
  C  C7  1  0.959100  0.131600  0.175400  1
  C  C8  1  0.701800  -0.173300  0.281600  1
  C  C9  1  0.802500  -0.103900  0.461500  1
  C  C10  1  0.450900  0.338500  -0.020600  1
  C  C11  1  0.349600  0.138800  0.168800  1
  C  C12  1  0.544100  0.410400  0.429500  1
  C  C13  1  0.397100  0.484200  0.412600  1
  C  C14  1  0.646800  0.426500  0.515400  1
  C  C15  1  0.290900  0.470400  0.325800  1
  C  C16  1  0.353200  0.573500  0.484600  1
  C  C17  1  0.602900  0.515800  0.587400  1
  C  C18  1  0.796600  0.356900  0.532000  1
  C  C19  1  0.149700  0.539300  0.313600  1
  C  C20  1  0.455900  0.589600  0.570500  1
  C  C21  1  0.203400  0.643100  0.468000  1
  C  C22  1  0.709100  0.529600  0.674200  1
  C  C23  1  0.895700  0.374300  0.613200  1
  C  C24  1  0.104300  0.625700  0.386800  1
  C  C25  1  0.414700  0.682000  0.639500  1
  C  C26  1  0.850300  0.460700  0.686400  1
  C  C27  1  0.382900  0.760700  0.697700  1
  C  C28  1  0.187700  0.821300  0.908700  1
  C  C29  1  0.319000  1.063400  0.653800  1
  C  C30  1  0.515400  0.822900  0.913600  1
  C  C31  1  0.180200  0.872400  1.027100  1
  C  C32  1  0.040900  0.868400  0.824600  1
  C  C33  1  0.298200  1.173300  0.718400  1
  C  C34  1  0.197500  1.103900  0.538500  1
  C  C35  1  0.549100  0.661500  1.020600  1
  C  C36  1  0.650400  0.861200  0.831200  1
  H  H37  1  0.793000  0.287500  0.042100  1
  H  H38  1  0.588200  -0.072500  0.394900  1
  H  H39  1  0.502500  0.119000  0.030400  1
  H  H40  1  0.901100  0.159100  -0.084700  1
  H  H41  1  0.728400  0.170100  -0.087400  1
  H  H42  1  0.834700  0.021200  0.015600  1
  H  H43  1  0.987500  0.025200  0.219400  1
  H  H44  1  0.951700  0.166000  0.249500  1
  H  H45  1  1.032700  0.173400  0.111300  1
  H  H46  1  0.790400  -0.166500  0.230000  1
  H  H47  1  0.617500  -0.151300  0.215900  1
  H  H48  1  0.710700  -0.272100  0.357800  1
  H  H49  1  0.801500  -0.201000  0.537400  1
  H  H50  1  0.786600  -0.032600  0.500900  1
  H  H51  1  0.896900  -0.104000  0.420000  1
  H  H52  1  0.368800  0.356400  -0.087100  1
  H  H53  1  0.536800  0.363400  -0.073400  1
  H  H54  1  0.425700  0.398800  0.030400  1
  H  H55  1  0.333100  0.188300  0.230600  1
  H  H56  1  0.365300  0.033300  0.226700  1
  H  H57  1  0.264300  0.170300  0.101500  1
  H  H58  1  0.318900  0.412700  0.276100  1
  H  H59  1  0.827400  0.297100  0.484900  1
  H  H60  1  0.172600  0.702900  0.515100  1
  H  H61  1  0.681100  0.587300  0.723900  1
  H  H62  1  0.995200  0.328800  0.621000  1
  H  H63  1  0.004800  0.671200  0.379000  1
  H  H64  1  0.207000  0.712500  0.957900  1
  H  H65  1  0.411800  1.072500  0.605100  1
  H  H66  1  0.497500  0.881000  0.969600  1
  H  H67  1  0.098900  0.840900  1.084700  1
  H  H68  1  0.271600  0.829900  1.087400  1
  H  H69  1  0.165300  0.978800  0.984400  1
  H  H70  1  0.012500  0.974800  0.780600  1
  H  H71  1  0.048300  0.834000  0.750500  1
  H  H72  1  -0.032700  0.826600  0.888700  1
  H  H73  1  0.209600  1.166500  0.770000  1
  H  H74  1  0.382500  1.151300  0.784100  1
  H  H75  1  0.289300  1.272100  0.642200  1
  H  H76  1  0.198500  1.201000  0.462600  1
  H  H77  1  0.213400  1.032600  0.499100  1
  H  H78  1  0.103100  1.104000  0.580000  1
  H  H79  1  0.631200  0.643600  1.087100  1
  H  H80  1  0.463200  0.636600  1.073400  1
  H  H81  1  0.574300  0.601200  0.969600  1
  H  H82  1  0.666900  0.811700  0.769400  1
  H  H83  1  0.634700  0.966700  0.773300  1
  H  H84  1  0.735700  0.829700  0.898500  1
  I  I85  1  -0.004310  0.519040  0.183340  1
  I  I86  1  1.004310  0.480960  0.816660  1
  Si  Si87  1  0.654400  0.129200  0.204300  1.0
  Si  Si88  1  0.345600  0.870800  0.795700  1
