# generated using pymatgen
data_SiH21C19
_symmetry_space_group_name_H-M   'P 1'
_cell_length_a   7.24600000
_cell_length_b   10.17900000
_cell_length_c   11.66900000
_cell_angle_alpha   105.71600000
_cell_angle_beta   102.00700000
_cell_angle_gamma   93.60900000
_symmetry_Int_Tables_number   1
_chemical_formula_structural   SiH21C19
_chemical_formula_sum   'Si2 H42 C38'
_cell_volume   803.83911011
_cell_formula_units_Z   2
loop_
 _symmetry_equiv_pos_site_id
 _symmetry_equiv_pos_as_xyz
  1  'x, y, z'
loop_
 _atom_site_type_symbol
 _atom_site_label
 _atom_site_symmetry_multiplicity
 _atom_site_fract_x
 _atom_site_fract_y
 _atom_site_fract_z
 _atom_site_occupancy
  C  C1  1  0.015100  0.697200  0.241400  1
  C  C2  1  0.277400  0.771100  0.091200  1
  C  C3  1  0.062300  0.986000  0.236600  1
  C  C4  1  -0.153100  0.764100  0.005600  1
  C  C5  1  0.007000  0.638300  0.317700  1
  C  C6  1  0.325800  0.878700  0.028300  1
  C  C7  1  0.253400  0.627600  0.001700  1
  C  C8  1  0.441200  0.781800  0.201100  1
  C  C9  1  0.002100  0.568300  0.408700  1
  C  C10  1  0.131700  0.471900  0.423300  1
  C  C11  1  -0.129000  0.598100  0.484400  1
  C  C12  1  0.266300  0.443400  0.351400  1
  C  C13  1  0.129000  0.401900  0.515600  1
  C  C14  1  -0.131700  0.528100  0.576700  1
  C  C15  1  -0.258700  0.693200  0.471600  1
  C  C16  1  0.395200  0.351200  0.366000  1
  C  C17  1  -0.002100  0.431700  0.591300  1
  C  C18  1  0.258700  0.306800  0.528400  1
  C  C19  1  -0.266300  0.556600  0.648600  1
  C  C20  1  -0.391200  0.719700  0.542900  1
  C  C21  1  0.535300  0.324800  0.295500  1
  C  C22  1  0.391200  0.280300  0.457100  1
  C  C23  1  -0.007000  0.361700  0.682300  1
  C  C24  1  -0.395200  0.648800  0.634000  1
  C  C25  1  -0.526500  0.814000  0.528900  1
  C  C26  1  0.661600  0.235800  0.313400  1
  C  C27  1  0.526500  0.186000  0.471100  1
  C  C28  1  -0.015100  0.302800  0.758600  1
  C  C29  1  -0.535300  0.675200  0.704500  1
  C  C30  1  -0.657100  0.834800  0.597300  1
  C  C31  1  0.657100  0.165200  0.402700  1
  C  C32  1  -0.661600  0.764200  0.686600  1
  C  C33  1  -0.277400  0.228900  0.908800  1
  C  C34  1  -0.062300  0.014000  0.763400  1
  C  C35  1  0.153100  0.235900  0.994400  1
  C  C36  1  -0.325800  0.121300  0.971700  1
  C  C37  1  -0.253400  0.372400  0.998300  1
  C  C38  1  -0.441200  0.218200  0.798900  1
  H  H39  1  -0.056200  0.998800  0.263800  1
  H  H40  1  0.080000  1.048300  0.187700  1
  H  H41  1  0.169600  1.006300  0.308200  1
  H  H42  1  -0.163200  0.667000  -0.040700  1
  H  H43  1  -0.132000  0.821900  -0.046600  1
  H  H44  1  -0.271000  0.782100  0.032200  1
  H  H45  1  0.436700  0.856700  -0.005600  1
  H  H46  1  0.354500  0.970100  0.088300  1
  H  H47  1  0.217000  0.878100  -0.037800  1
  H  H48  1  0.154500  0.621600  -0.071700  1
  H  H49  1  0.216400  0.559200  0.040600  1
  H  H50  1  0.373900  0.609600  -0.021500  1
  H  H51  1  0.409900  0.715100  0.243200  1
  H  H52  1  0.461200  0.875000  0.257800  1
  H  H53  1  0.557500  0.762100  0.172800  1
  H  H54  1  0.268600  0.489200  0.290600  1
  H  H55  1  -0.255700  0.740900  0.412200  1
  H  H56  1  0.255700  0.259100  0.587800  1
  H  H57  1  -0.268600  0.510800  0.709400  1
  H  H58  1  0.539800  0.370400  0.234900  1
  H  H59  1  -0.524500  0.862900  0.470300  1
  H  H60  1  0.754200  0.220400  0.265900  1
  H  H61  1  0.524500  0.137100  0.529700  1
  H  H62  1  -0.539800  0.629600  0.765100  1
  H  H63  1  -0.746600  0.897100  0.585600  1
  H  H64  1  0.746600  0.102900  0.414400  1
  H  H65  1  -0.754200  0.779600  0.734100  1
  H  H66  1  0.056200  0.001200  0.736200  1
  H  H67  1  -0.080000  -0.048300  0.812300  1
  H  H68  1  -0.169600  -0.006300  0.691800  1
  H  H69  1  0.163200  0.333000  1.040700  1
  H  H70  1  0.132000  0.178100  1.046600  1
  H  H71  1  0.271000  0.217900  0.967800  1
  H  H72  1  -0.436700  0.143300  1.005600  1
  H  H73  1  -0.354500  0.029900  0.911700  1
  H  H74  1  -0.217000  0.121900  1.037800  1
  H  H75  1  -0.154500  0.378400  1.071700  1
  H  H76  1  -0.216400  0.440800  0.959400  1
  H  H77  1  -0.373900  0.390400  1.021500  1
  H  H78  1  -0.409900  0.284900  0.756800  1
  H  H79  1  -0.461200  0.125000  0.742200  1
  H  H80  1  -0.557500  0.237900  0.827200  1
  Si  Si81  1  0.050100  0.804900  0.142000  1.0
  Si  Si82  1  -0.050100  0.195100  0.858000  1
