# generated using pymatgen
data_SiH23C21O
_symmetry_space_group_name_H-M   'P 1'
_cell_length_a   7.04290000
_cell_length_b   8.06890000
_cell_length_c   15.72720000
_cell_angle_alpha   88.86200000
_cell_angle_beta   79.31300000
_cell_angle_gamma   89.51900000
_symmetry_Int_Tables_number   1
_chemical_formula_structural   SiH23C21O
_chemical_formula_sum   'Si2 H46 C42 O2'
_cell_volume   878.06693691
_cell_formula_units_Z   2
loop_
 _symmetry_equiv_pos_site_id
 _symmetry_equiv_pos_as_xyz
  1  'x, y, z'
loop_
 _atom_site_type_symbol
 _atom_site_label
 _atom_site_symmetry_multiplicity
 _atom_site_fract_x
 _atom_site_fract_y
 _atom_site_fract_z
 _atom_site_occupancy
  C  C1  1  0.177100  0.192600  0.758850  1
  C  C2  1  0.181500  0.189600  0.565610  1
  C  C3  1  0.235100  0.519500  0.659990  1
  C  C4  1  0.554600  0.246400  0.636470  1
  C  C5  1  0.121400  0.129730  0.829350  1
  C  C6  1  0.201200  0.001300  0.570550  1
  C  C7  1  0.275200  0.258300  0.476420  1
  C  C8  1  0.340500  0.604100  0.723740  1
  C  C9  1  0.016900  0.553700  0.682340  1
  C  C10  1  0.637000  0.118700  0.690510  1
  C  C11  1  0.059000  0.062370  0.914310  1
  C  C12  1  -0.124300  0.107460  0.961720  1
  C  C13  1  0.183400  -0.044880  0.950790  1
  C  C14  1  -0.251700  0.210510  0.925900  1
  C  C15  1  -0.183400  0.044880  1.049210  1
  C  C16  1  0.124300  -0.107460  1.038280  1
  C  C17  1  0.365600  -0.091960  0.904590  1
  C  C18  1  -0.432900  0.252040  0.971540  1
  C  C19  1  -0.059000  -0.062370  1.085690  1
  C  C20  1  -0.365600  0.091960  1.095410  1
  C  C21  1  0.251700  -0.210510  1.074100  1
  C  C22  1  0.490400  -0.192430  0.940600  1
  C  C23  1  -0.564900  0.353120  0.934570  1
  C  C24  1  -0.490400  0.192430  1.059400  1
  C  C25  1  -0.121400  -0.129730  1.170650  1
  C  C26  1  0.432900  -0.252040  1.028460  1
  C  C27  1  0.677300  -0.238500  0.894090  1
  C  C28  1  -0.741300  0.392100  0.980990  1
  C  C29  1  -0.677300  0.238500  1.105910  1
  C  C30  1  -0.177100  -0.192600  1.241150  1
  C  C31  1  0.564900  -0.353120  1.065430  1
  C  C32  1  0.797600  -0.334500  0.931920  1
  C  C33  1  -0.797600  0.334500  1.068080  1
  C  C34  1  0.741300  -0.392100  1.019010  1
  C  C35  1  -0.181500  -0.189600  1.434390  1
  C  C36  1  -0.235100  -0.519500  1.340010  1
  C  C37  1  -0.554600  -0.246400  1.363530  1
  C  C38  1  -0.201200  -0.001300  1.429450  1
  C  C39  1  -0.275200  -0.258300  1.523580  1
  C  C40  1  -0.340500  -0.604100  1.276260  1
  C  C41  1  -0.016900  -0.553700  1.317660  1
  C  C42  1  -0.637000  -0.118700  1.309490  1
  H  H43  1  0.040400  0.216300  0.574200  1
  H  H44  1  0.284200  0.568300  0.601200  1
  H  H45  1  0.145200  -0.048400  0.524500  1
  H  H46  1  0.132900  -0.039700  0.627000  1
  H  H47  1  0.338200  -0.029100  0.563400  1
  H  H48  1  0.414600  0.236500  0.466600  1
  H  H49  1  0.252200  0.378100  0.473900  1
  H  H50  1  0.218800  0.204400  0.431700  1
  H  H51  1  0.315400  0.723700  0.722700  1
  H  H52  1  0.479700  0.583600  0.707300  1
  H  H53  1  0.294100  0.559200  0.782200  1
  H  H54  1  -0.035900  0.503900  0.739100  1
  H  H55  1  -0.046600  0.505400  0.638300  1
  H  H56  1  -0.006200  0.673600  0.683900  1
  H  H57  1  0.777300  0.111800  0.671100  1
  H  H58  1  0.579200  0.010600  0.684200  1
  H  H59  1  0.608100  0.150500  0.751400  1
  H  H60  1  -0.212400  0.253100  0.868600  1
  H  H61  1  0.404200  -0.053300  0.846600  1
  H  H62  1  -0.404200  0.053300  1.153400  1
  H  H63  1  0.212400  -0.253100  1.131400  1
  H  H64  1  -0.528900  0.393600  0.876700  1
  H  H65  1  0.717300  -0.201100  0.835900  1
  H  H66  1  -0.827900  0.458500  0.955100  1
  H  H67  1  -0.717300  0.201100  1.164100  1
  H  H68  1  0.528900  -0.393600  1.123300  1
  H  H69  1  0.921000  -0.363800  0.900000  1
  H  H70  1  -0.921000  0.363800  1.100000  1
  H  H71  1  0.827900  -0.458500  1.044900  1
  H  H72  1  -0.040400  -0.216300  1.425800  1
  H  H73  1  -0.284200  -0.568300  1.398800  1
  H  H74  1  -0.145200  0.048400  1.475500  1
  H  H75  1  -0.132900  0.039700  1.373000  1
  H  H76  1  -0.338200  0.029100  1.436600  1
  H  H77  1  -0.414600  -0.236500  1.533400  1
  H  H78  1  -0.252200  -0.378100  1.526100  1
  H  H79  1  -0.218800  -0.204400  1.568300  1
  H  H80  1  -0.315400  -0.723700  1.277300  1
  H  H81  1  -0.479700  -0.583600  1.292700  1
  H  H82  1  -0.294100  -0.559200  1.217800  1
  H  H83  1  0.035900  -0.503900  1.260900  1
  H  H84  1  0.046600  -0.505400  1.361700  1
  H  H85  1  0.006200  -0.673600  1.316100  1
  H  H86  1  -0.777300  -0.111800  1.328900  1
  H  H87  1  -0.579200  -0.010600  1.315800  1
  H  H88  1  -0.608100  -0.150500  1.248600  1
  O  O89  1  0.659410  0.323010  0.578730  1
  O  O90  1  -0.659410  -0.323010  1.421270  1
  Si  Si91  1  0.280270  0.290530  0.654570  1.0
  Si  Si92  1  -0.280270  -0.290530  1.345430  1
