# generated using pymatgen
data_SiH23C16S
_symmetry_space_group_name_H-M   'P 1'
_cell_length_a   8.33070000
_cell_length_b   9.70330000
_cell_length_c   10.87710000
_cell_angle_alpha   64.61040000
_cell_angle_beta   87.90000000
_cell_angle_gamma   88.90320000
_symmetry_Int_Tables_number   1
_chemical_formula_structural   SiH23C16S
_chemical_formula_sum   'Si2 H46 C32 S2'
_cell_volume   793.78990108
_cell_formula_units_Z   2
loop_
 _symmetry_equiv_pos_site_id
 _symmetry_equiv_pos_as_xyz
  1  'x, y, z'
loop_
 _atom_site_type_symbol
 _atom_site_label
 _atom_site_symmetry_multiplicity
 _atom_site_fract_x
 _atom_site_fract_y
 _atom_site_fract_z
 _atom_site_occupancy
  C  C1  1  0.417340  0.544000  0.206730  1
  C  C2  1  0.509160  0.232780  0.417850  1
  C  C3  1  0.165080  0.364510  0.407930  1
  C  C4  1  0.301190  0.270300  0.175850  1
  C  C5  1  0.448920  0.677580  0.147200  1
  C  C6  1  0.650200  0.204940  0.336130  1
  C  C7  1  0.569770  0.306790  0.507170  1
  C  C8  1  0.075320  0.213680  0.485030  1
  C  C9  1  0.047230  0.492980  0.328240  1
  C  C10  1  0.268730  0.097520  0.242150  1
  C  C11  1  0.169200  0.357350  0.078150  1
  C  C12  1  0.476360  0.838270  0.074040  1
  C  C13  1  0.361830  0.932330  -0.015200  1
  C  C14  1  0.615630  0.908120  0.088750  1
  C  C15  1  0.384370  1.091880  -0.088750  1
  C  C16  1  0.638170  1.067670  0.015200  1
  C  C17  1  0.755600  0.841500  0.167100  1
  C  C18  1  0.523640  1.161730  -0.074040  1
  C  C19  1  0.244400  1.158500  -0.167100  1
  C  C20  1  0.129800  1.056200  -0.152100  1
  C  C21  1  0.870200  0.943800  0.152100  1
  C  C22  1  0.551080  1.322420  -0.147200  1
  C  C23  1  0.582660  1.456000  -0.206730  1
  C  C24  1  0.490840  1.767220  -0.417850  1
  C  C25  1  0.834920  1.635490  -0.407930  1
  C  C26  1  0.698810  1.729700  -0.175850  1
  C  C27  1  0.349800  1.795060  -0.336130  1
  C  C28  1  0.430230  1.693210  -0.507170  1
  C  C29  1  0.924680  1.786320  -0.485030  1
  C  C30  1  0.952770  1.507020  -0.328240  1
  C  C31  1  0.731270  1.902480  -0.242150  1
  C  C32  1  0.830800  1.642650  -0.078150  1
  H  H33  1  0.463500  0.131000  0.480100  1
  H  H34  1  0.209100  0.391400  0.479100  1
  H  H35  1  0.401700  0.285300  0.118500  1
  H  H36  1  0.695000  0.303100  0.271500  1
  H  H37  1  0.612100  0.149100  0.286200  1
  H  H38  1  0.733400  0.144900  0.398500  1
  H  H39  1  0.654800  0.243200  0.564900  1
  H  H40  1  0.480700  0.315900  0.564700  1
  H  H41  1  0.612400  0.408400  0.448900  1
  H  H42  1  -0.007200  0.226000  0.546100  1
  H  H43  1  0.151300  0.133900  0.538400  1
  H  H44  1  0.024400  0.184700  0.419800  1
  H  H45  1  -0.001300  0.471200  0.257700  1
  H  H46  1  0.105000  0.590100  0.285500  1
  H  H47  1  -0.037200  0.499600  0.390600  1
  H  H48  1  0.168400  0.076800  0.296800  1
  H  H49  1  0.357600  0.044100  0.300800  1
  H  H50  1  0.259600  0.061800  0.171000  1
  H  H51  1  0.165800  0.323600  0.005300  1
  H  H52  1  0.191800  0.466900  0.038600  1
  H  H53  1  0.065400  0.337300  0.127900  1
  H  H54  1  0.765900  0.735500  0.224000  1
  H  H55  1  0.234100  1.264500  -0.224000  1
  H  H56  1  0.031000  1.082900  -0.197700  1
  H  H57  1  0.969000  0.917100  0.197700  1
  H  H58  1  0.536500  1.869000  -0.480100  1
  H  H59  1  0.790900  1.608600  -0.479100  1
  H  H60  1  0.598300  1.714700  -0.118500  1
  H  H61  1  0.305000  1.696900  -0.271500  1
  H  H62  1  0.387900  1.850900  -0.286200  1
  H  H63  1  0.266600  1.855100  -0.398500  1
  H  H64  1  0.345200  1.756800  -0.564900  1
  H  H65  1  0.519300  1.684100  -0.564700  1
  H  H66  1  0.387600  1.591600  -0.448900  1
  H  H67  1  1.007200  1.774000  -0.546100  1
  H  H68  1  0.848700  1.866100  -0.538400  1
  H  H69  1  0.975600  1.815300  -0.419800  1
  H  H70  1  1.001300  1.528800  -0.257700  1
  H  H71  1  0.895000  1.409900  -0.285500  1
  H  H72  1  1.037200  1.500400  -0.390600  1
  H  H73  1  0.831600  1.923200  -0.296800  1
  H  H74  1  0.642400  1.955900  -0.300800  1
  H  H75  1  0.740400  1.938200  -0.171000  1
  H  H76  1  0.834200  1.676400  -0.005300  1
  H  H77  1  0.808200  1.533100  -0.038600  1
  H  H78  1  0.934600  1.662700  -0.127900  1
  S  S79  1  0.179870  0.870400  -0.041100  1
  S  S80  1  0.820130  1.129600  0.041100  1
  Si  Si81  1  0.344440  0.347210  0.303670  1.0
  Si  Si82  1  0.655560  1.652790  -0.303670  1
