# generated using pymatgen
data_SiH25C20S
_symmetry_space_group_name_H-M   'P 1'
_cell_length_a   8.78650000
_cell_length_b   17.69670000
_cell_length_c   12.10650000
_cell_angle_alpha   90.00000000
_cell_angle_beta   90.46380000
_cell_angle_gamma   90.00000000
_symmetry_Int_Tables_number   1
_chemical_formula_structural   SiH25C20S
_chemical_formula_sum   'Si4 H100 C80 S4'
_cell_volume   1882.40288320
_cell_formula_units_Z   4
loop_
 _symmetry_equiv_pos_site_id
 _symmetry_equiv_pos_as_xyz
  1  'x, y, z'
loop_
 _atom_site_type_symbol
 _atom_site_label
 _atom_site_symmetry_multiplicity
 _atom_site_fract_x
 _atom_site_fract_y
 _atom_site_fract_z
 _atom_site_occupancy
  C  C1  1  0.934900  0.275370  0.449640  1
  C  C2  1  0.690500  0.159530  0.426600  1
  C  C3  1  0.990900  0.123700  0.550690  1
  C  C4  1  0.991700  0.144810  0.294770  1
  C  C5  1  0.953000  0.342220  0.463570  1
  C  C6  1  0.616800  0.201330  0.334700  1
  C  C7  1  0.640300  0.076100  0.437400  1
  C  C8  1  1.162200  0.135570  0.562460  1
  C  C9  1  0.910000  0.145120  0.658450  1
  C  C10  1  1.012900  0.058540  0.287770  1
  C  C11  1  1.142600  0.184600  0.268220  1
  C  C12  1  0.976600  0.422020  0.480990  1
  C  C13  1  1.115300  0.455460  0.449020  1
  C  C14  1  0.859800  0.465490  0.530970  1
  C  C15  1  1.229600  0.412790  0.395330  1
  C  C16  1  1.140200  0.534510  0.469030  1
  C  C17  1  0.884700  0.544540  0.550980  1
  C  C18  1  0.720400  0.432030  0.563220  1
  C  C19  1  1.362100  0.446990  0.363560  1
  C  C20  1  1.023400  0.577980  0.519010  1
  C  C21  1  1.279600  0.567970  0.436780  1
  C  C22  1  0.770400  0.587210  0.604670  1
  C  C23  1  0.611800  0.474300  0.614880  1
  C  C24  1  1.388200  0.525700  0.385120  1
  C  C25  1  1.047000  0.657780  0.536430  1
  C  C26  1  0.637900  0.553010  0.636440  1
  C  C27  1  0.465500  0.451300  0.653000  1
  C  C28  1  1.534500  0.548700  0.347000  1
  C  C29  1  1.613700  0.491500  0.300100  1
  C  C30  1  1.065100  0.724630  0.550360  1
  C  C31  1  0.386300  0.508500  0.699900  1
  C  C32  1  1.309500  0.840470  0.573400  1
  C  C33  1  1.009100  0.876300  0.449310  1
  C  C34  1  1.008300  0.855190  0.705230  1
  C  C35  1  1.383200  0.798670  0.665300  1
  C  C36  1  1.359700  0.923900  0.562600  1
  C  C37  1  0.837800  0.864430  0.437540  1
  C  C38  1  1.090000  0.854880  0.341550  1
  C  C39  1  0.987100  0.941460  0.712230  1
  C  C40  1  0.857400  0.815400  0.731780  1
  C  C41  1  1.065100  -0.224630  1.050360  1
  C  C42  1  1.309500  -0.340470  1.073400  1
  C  C43  1  1.009100  -0.376300  0.949310  1
  C  C44  1  1.008300  -0.355190  1.205230  1
  C  C45  1  1.047000  -0.157780  1.036430  1
  C  C46  1  1.383200  -0.298670  1.165300  1
  C  C47  1  1.359700  -0.423900  1.062600  1
  C  C48  1  0.837800  -0.364430  0.937540  1
  C  C49  1  1.090000  -0.354880  0.841550  1
  C  C50  1  0.987100  -0.441460  1.212230  1
  C  C51  1  0.857400  -0.315400  1.231780  1
  C  C52  1  1.023400  -0.077980  1.019010  1
  C  C53  1  0.884700  -0.044540  1.050980  1
  C  C54  1  1.140200  -0.034510  0.969030  1
  C  C55  1  0.770400  -0.087210  1.104670  1
  C  C56  1  0.859800  0.034510  1.030970  1
  C  C57  1  1.115300  0.044540  0.949020  1
  C  C58  1  1.279600  -0.067970  0.936780  1
  C  C59  1  0.637900  -0.053010  1.136440  1
  C  C60  1  0.976600  0.077980  0.980990  1
  C  C61  1  0.720400  0.067970  1.063220  1
  C  C62  1  1.229600  0.087210  0.895330  1
  C  C63  1  1.388200  -0.025700  0.885120  1
  C  C64  1  0.611800  0.025700  1.114880  1
  C  C65  1  0.953000  0.157780  0.963570  1
  C  C66  1  1.362100  0.053010  0.863560  1
  C  C67  1  1.534500  -0.048700  0.847000  1
  C  C68  1  0.465500  0.048700  1.153000  1
  C  C69  1  0.386300  -0.008500  1.199900  1
  C  C70  1  0.934900  0.224630  0.949640  1
  C  C71  1  1.613700  0.008500  0.800100  1
  C  C72  1  0.690500  0.340470  0.926600  1
  C  C73  1  0.990900  0.376300  1.050690  1
  C  C74  1  0.991700  0.355190  0.794770  1
  C  C75  1  0.616800  0.298670  0.834700  1
  C  C76  1  0.640300  0.423900  0.937400  1
  C  C77  1  1.162200  0.364430  1.062460  1
  C  C78  1  0.910000  0.354880  1.158450  1
  C  C79  1  1.012900  0.441460  0.787770  1
  C  C80  1  1.142600  0.315400  0.768220  1
  H  H81  1  0.653200  0.184700  0.495300  1
  H  H82  1  0.974200  0.068400  0.539200  1
  H  H83  1  0.918000  0.159000  0.235000  1
  H  H84  1  0.655800  0.253200  0.332900  1
  H  H85  1  0.506400  0.202200  0.345600  1
  H  H86  1  0.639500  0.176200  0.264600  1
  H  H87  1  0.693300  0.052800  0.500300  1
  H  H88  1  0.665700  0.048700  0.369600  1
  H  H89  1  0.530200  0.073800  0.449200  1
  H  H90  1  1.184000  0.189800  0.568000  1
  H  H91  1  1.213500  0.114700  0.497700  1
  H  H92  1  1.199200  0.109900  0.629200  1
  H  H93  1  0.953500  0.115900  0.719800  1
  H  H94  1  0.801100  0.133900  0.651400  1
  H  H95  1  0.923900  0.199200  0.672800  1
  H  H96  1  1.055600  0.045300  0.215800  1
  H  H97  1  0.914200  0.033600  0.296500  1
  H  H98  1  1.082500  0.041900  0.346600  1
  H  H99  1  1.221200  0.168300  0.320900  1
  H  H100  1  1.128900  0.239400  0.273700  1
  H  H101  1  1.173700  0.171400  0.193100  1
  H  H102  1  1.214300  0.360500  0.381400  1
  H  H103  1  0.702400  0.380000  0.548900  1
  H  H104  1  1.297600  0.620000  0.451100  1
  H  H105  1  0.785700  0.639500  0.618600  1
  H  H106  1  0.427700  0.401200  0.646200  1
  H  H107  1  1.572300  0.598800  0.353800  1
  H  H108  1  1.713500  0.497500  0.271900  1
  H  H109  1  0.286500  0.502500  0.728100  1
  H  H110  1  1.346800  0.815300  0.504700  1
  H  H111  1  1.025800  0.931600  0.460800  1
  H  H112  1  1.082000  0.841000  0.765000  1
  H  H113  1  1.344200  0.746800  0.667100  1
  H  H114  1  1.493600  0.797800  0.654400  1
  H  H115  1  1.360500  0.823800  0.735400  1
  H  H116  1  1.306700  0.947200  0.499700  1
  H  H117  1  1.334300  0.951300  0.630400  1
  H  H118  1  1.469800  0.926200  0.550800  1
  H  H119  1  0.816000  0.810200  0.432000  1
  H  H120  1  0.786500  0.885300  0.502300  1
  H  H121  1  0.800800  0.890100  0.370800  1
  H  H122  1  1.046500  0.884100  0.280200  1
  H  H123  1  1.198900  0.866100  0.348600  1
  H  H124  1  1.076100  0.800800  0.327200  1
  H  H125  1  0.944400  0.954700  0.784200  1
  H  H126  1  1.085800  0.966400  0.703500  1
  H  H127  1  0.917500  0.958100  0.653400  1
  H  H128  1  0.778800  0.831700  0.679100  1
  H  H129  1  0.871100  0.760600  0.726300  1
  H  H130  1  0.826300  0.828600  0.806900  1
  H  H131  1  1.346800  -0.315300  1.004700  1
  H  H132  1  1.025800  -0.431600  0.960800  1
  H  H133  1  1.082000  -0.341000  1.265000  1
  H  H134  1  1.344200  -0.246800  1.167100  1
  H  H135  1  1.493600  -0.297800  1.154400  1
  H  H136  1  1.360500  -0.323800  1.235400  1
  H  H137  1  1.306700  -0.447200  0.999700  1
  H  H138  1  1.334300  -0.451300  1.130400  1
  H  H139  1  1.469800  -0.426200  1.050800  1
  H  H140  1  0.816000  -0.310200  0.932000  1
  H  H141  1  0.786500  -0.385300  1.002300  1
  H  H142  1  0.800800  -0.390100  0.870800  1
  H  H143  1  1.046500  -0.384100  0.780200  1
  H  H144  1  1.198900  -0.366100  0.848600  1
  H  H145  1  1.076100  -0.300800  0.827200  1
  H  H146  1  0.944400  -0.454700  1.284200  1
  H  H147  1  1.085800  -0.466400  1.203500  1
  H  H148  1  0.917500  -0.458100  1.153400  1
  H  H149  1  0.778800  -0.331700  1.179100  1
  H  H150  1  0.871100  -0.260600  1.226300  1
  H  H151  1  0.826300  -0.328600  1.306900  1
  H  H152  1  0.785700  -0.139500  1.118600  1
  H  H153  1  1.297600  -0.120000  0.951100  1
  H  H154  1  0.702400  0.120000  1.048900  1
  H  H155  1  1.214300  0.139500  0.881400  1
  H  H156  1  1.572300  -0.098800  0.853800  1
  H  H157  1  0.427700  0.098800  1.146200  1
  H  H158  1  0.286500  -0.002500  1.228100  1
  H  H159  1  1.713500  0.002500  0.771900  1
  H  H160  1  0.653200  0.315300  0.995300  1
  H  H161  1  0.974200  0.431600  1.039200  1
  H  H162  1  0.918000  0.341000  0.735000  1
  H  H163  1  0.655800  0.246800  0.832900  1
  H  H164  1  0.506400  0.297800  0.845600  1
  H  H165  1  0.639500  0.323800  0.764600  1
  H  H166  1  0.693300  0.447200  1.000300  1
  H  H167  1  0.665700  0.451300  0.869600  1
  H  H168  1  0.530200  0.426200  0.949200  1
  H  H169  1  1.184000  0.310200  1.068000  1
  H  H170  1  1.213500  0.385300  0.997700  1
  H  H171  1  1.199200  0.390100  1.129200  1
  H  H172  1  0.953500  0.384100  1.219800  1
  H  H173  1  0.801100  0.366100  1.151400  1
  H  H174  1  0.923900  0.300800  1.172800  1
  H  H175  1  1.055600  0.454700  0.715800  1
  H  H176  1  0.914200  0.466400  0.796500  1
  H  H177  1  1.082500  0.458100  0.846600  1
  H  H178  1  1.221200  0.331700  0.820900  1
  H  H179  1  1.128900  0.260600  0.773700  1
  H  H180  1  1.173700  0.328600  0.693100  1
  S  S181  1  1.516100  0.405920  0.296300  1
  S  S182  1  0.483900  0.594080  0.703700  1
  S  S183  1  0.483900  -0.094080  1.203700  1
  S  S184  1  1.516100  0.094080  0.796300  1
  Si  Si185  1  0.903000  0.173500  0.429170  1.0
  Si  Si186  1  1.097000  0.826500  0.570830  1
  Si  Si187  1  1.097000  -0.326500  1.070830  1.0
  Si  Si188  1  0.903000  0.326500  0.929170  1
