# generated using pymatgen
data_SiH29C25F4
_symmetry_space_group_name_H-M   'P 1'
_cell_length_a   7.50890000
_cell_length_b   8.20200000
_cell_length_c   18.69360000
_cell_angle_alpha   90.87100000
_cell_angle_beta   97.69800000
_cell_angle_gamma   102.08400000
_symmetry_Int_Tables_number   1
_chemical_formula_structural   SiH29C25F4
_chemical_formula_sum   'Si2 H58 C50 F8'
_cell_volume   1114.53337079
_cell_formula_units_Z   2
loop_
 _symmetry_equiv_pos_site_id
 _symmetry_equiv_pos_as_xyz
  1  'x, y, z'
loop_
 _atom_site_type_symbol
 _atom_site_label
 _atom_site_symmetry_multiplicity
 _atom_site_fract_x
 _atom_site_fract_y
 _atom_site_fract_z
 _atom_site_occupancy
  C  C1  1  0.348900  0.673200  0.304390  1
  C  C2  1  0.327800  0.973200  0.214470  1
  C  C3  1  0.506200  0.696200  0.164990  1
  C  C4  1  0.088400  0.625500  0.164610  1
  C  C5  1  0.385100  0.623300  0.363720  1
  C  C6  1  0.493700  1.075100  0.264700  1
  C  C7  1  0.489700  0.736700  0.085070  1
  C  C8  1  0.065700  0.435800  0.163770  1
  C  C9  1  0.438300  0.562700  0.432990  1
  C  C10  1  0.523200  1.261200  0.253530  1
  C  C11  1  0.653800  0.715200  0.049250  1
  C  C12  1  -0.106700  0.343000  0.115920  1
  C  C13  1  0.369700  0.393800  0.447430  1
  C  C14  1  0.565200  0.670600  0.484780  1
  C  C15  1  0.687600  1.363300  0.302440  1
  C  C16  1  0.643500  0.769000  -0.028430  1
  C  C17  1  -0.136600  0.154900  0.118790  1
  C  C18  1  0.240100  0.286400  0.397520  1
  C  C19  1  0.434800  0.329400  0.515220  1
  C  C20  1  0.630300  0.606200  0.552570  1
  C  C21  1  0.628900  0.840100  0.472310  1
  C  C22  1  0.176900  0.120300  0.410460  1
  C  C23  1  0.561700  0.437300  0.567010  1
  C  C24  1  0.371100  0.159900  0.527690  1
  C  C25  1  0.759900  0.713600  0.602480  1
  C  C26  1  0.752800  0.946000  0.522850  1
  C  C27  1  0.044400  0.009600  0.360580  1
  C  C28  1  0.247200  0.054000  0.477150  1
  C  C29  1  0.614900  0.376700  0.636280  1
  C  C30  1  0.823100  0.879700  0.589540  1
  C  C31  1  0.817600  1.118600  0.511600  1
  C  C32  1  -0.012100  -0.153000  0.373540  1
  C  C33  1  0.182400  -0.118600  0.488400  1
  C  C34  1  0.651100  0.326800  0.695610  1
  C  C35  1  0.955600  0.990400  0.639420  1
  C  C36  1  0.940500  1.218800  0.561160  1
  C  C37  1  0.059500  -0.218800  0.438840  1
  C  C38  1  1.012100  1.153000  0.626460  1
  C  C39  1  0.672200  0.026800  0.785530  1
  C  C40  1  0.493800  0.303800  0.835010  1
  C  C41  1  0.911600  0.374500  0.835390  1
  C  C42  1  0.506300  -0.075100  0.735300  1
  C  C43  1  0.510300  0.263300  0.914930  1
  C  C44  1  0.934300  0.564200  0.836230  1
  C  C45  1  0.476800  -0.261200  0.746470  1
  C  C46  1  0.346200  0.284800  0.950750  1
  C  C47  1  1.106700  0.657000  0.884080  1
  C  C48  1  0.312400  -0.363300  0.697560  1
  C  C49  1  0.356500  0.231000  1.028430  1
  C  C50  1  1.136600  0.845100  0.881210  1
  F  F51  1  -0.006700  0.088100  0.301590  1
  F  F52  1  0.739700  1.163200  0.446680  1
  F  F53  1  -0.117000  -0.239300  0.327970  1
  F  F54  1  0.260300  -0.163200  0.553320  1
  F  F55  1  1.006700  0.911900  0.698410  1
  F  F56  1  0.987800  1.364100  0.548160  1
  F  F57  1  0.012200  -0.364100  0.451840  1
  F  F58  1  1.117000  1.239300  0.672030  1
  H  H59  1  0.332400  1.013400  0.164900  1
  H  H60  1  0.213800  0.994300  0.230400  1
  H  H61  1  0.624900  0.761100  0.190200  1
  H  H62  1  0.507700  0.576300  0.169100  1
  H  H63  1  -0.010400  0.656100  0.188600  1
  H  H64  1  0.072400  0.660500  0.114100  1
  H  H65  1  0.475300  1.054500  0.315500  1
  H  H66  1  0.605700  1.036300  0.256200  1
  H  H67  1  0.377400  0.663300  0.059000  1
  H  H68  1  0.475100  0.853400  0.080500  1
  H  H69  1  0.174500  0.406000  0.146700  1
  H  H70  1  0.061700  0.398400  0.213700  1
  H  H71  1  0.540500  1.281500  0.202600  1
  H  H72  1  0.411400  1.299900  0.262300  1
  H  H73  1  0.662300  0.596400  0.050100  1
  H  H74  1  0.767400  0.781400  0.077700  1
  H  H75  1  -0.214700  0.378900  0.130800  1
  H  H76  1  -0.098700  0.374700  0.065400  1
  H  H77  1  0.669000  1.348300  0.353000  1
  H  H78  1  0.700900  1.481500  0.291900  1
  H  H79  1  0.799100  1.326000  0.294000  1
  H  H80  1  0.533200  0.701900  -0.057300  1
  H  H81  1  0.753000  0.752600  -0.048400  1
  H  H82  1  0.637700  0.887200  -0.029600  1
  H  H83  1  -0.030700  0.118100  0.103700  1
  H  H84  1  -0.248300  0.103000  0.086300  1
  H  H85  1  -0.150000  0.121900  0.168300  1
  H  H86  1  0.194400  0.329100  0.353500  1
  H  H87  1  0.585600  0.883100  0.427900  1
  H  H88  1  0.414400  0.116900  0.572100  1
  H  H89  1  0.805600  0.670900  0.646500  1
  H  H90  1  0.667600  -0.013400  0.835100  1
  H  H91  1  0.786200  0.005700  0.769600  1
  H  H92  1  0.375100  0.238900  0.809800  1
  H  H93  1  0.492300  0.423700  0.830900  1
  H  H94  1  1.010400  0.343900  0.811400  1
  H  H95  1  0.927600  0.339500  0.885900  1
  H  H96  1  0.524700  -0.054500  0.684500  1
  H  H97  1  0.394300  -0.036300  0.743800  1
  H  H98  1  0.622600  0.336700  0.941000  1
  H  H99  1  0.524900  0.146600  0.919500  1
  H  H100  1  0.825500  0.594000  0.853300  1
  H  H101  1  0.938300  0.601600  0.786300  1
  H  H102  1  0.459500  -0.281500  0.797400  1
  H  H103  1  0.588600  -0.299900  0.737700  1
  H  H104  1  0.337700  0.403600  0.949900  1
  H  H105  1  0.232600  0.218600  0.922300  1
  H  H106  1  1.214700  0.621100  0.869200  1
  H  H107  1  1.098700  0.625300  0.934600  1
  H  H108  1  0.331000  -0.348300  0.647000  1
  H  H109  1  0.299100  -0.481500  0.708100  1
  H  H110  1  0.200900  -0.326000  0.706000  1
  H  H111  1  0.466800  0.298100  1.057300  1
  H  H112  1  0.247000  0.247400  1.048400  1
  H  H113  1  0.362300  0.112800  1.029600  1
  H  H114  1  1.030700  0.881900  0.896300  1
  H  H115  1  1.248300  0.897000  0.913700  1
  H  H116  1  1.150000  0.878100  0.831700  1
  Si  Si117  1  0.315170  0.743410  0.211460  1.0
  Si  Si118  1  0.684830  0.256590  0.788540  1
