# generated using pymatgen
data_SiH27C23O2
_symmetry_space_group_name_H-M   'P 1'
_cell_length_a   7.61700000
_cell_length_b   7.76500000
_cell_length_c   17.53900000
_cell_angle_alpha   93.79000000
_cell_angle_beta   101.85000000
_cell_angle_gamma   93.84000000
_symmetry_Int_Tables_number   1
_chemical_formula_structural   SiH27C23O2
_chemical_formula_sum   'Si2 H54 C46 O4'
_cell_volume   1009.58221667
_cell_formula_units_Z   2
loop_
 _symmetry_equiv_pos_site_id
 _symmetry_equiv_pos_as_xyz
  1  'x, y, z'
loop_
 _atom_site_type_symbol
 _atom_site_label
 _atom_site_symmetry_multiplicity
 _atom_site_fract_x
 _atom_site_fract_y
 _atom_site_fract_z
 _atom_site_occupancy
  C  C1  1  0.178300  0.406600  0.226700  1
  C  C2  1  0.084600  0.202500  0.353000  1
  C  C3  1  0.314800  0.546600  0.392300  1
  C  C4  1  0.470600  0.222300  0.322800  1
  C  C5  1  0.125100  0.443600  0.160800  1
  C  C6  1  0.021000  0.041600  0.294900  1
  C  C7  1  0.132000  0.149900  0.437200  1
  C  C8  1  0.139100  0.626000  0.401100  1
  C  C9  1  0.443100  0.682500  0.365800  1
  C  C10  1  0.594000  0.215100  0.401900  1
  C  C11  1  0.588900  0.321000  0.269900  1
  C  C12  1  0.062200  0.476000  0.080300  1
  C  C13  1  0.162400  0.421400  0.024600  1
  C  C14  1  -0.099600  0.557000  0.056800  1
  C  C15  1  0.327000  0.344900  0.047200  1
  C  C16  1  0.099600  0.443000  -0.056800  1
  C  C17  1  -0.162400  0.578600  -0.024600  1
  C  C18  1  -0.199800  0.617400  0.110900  1
  C  C19  1  0.424900  0.285400  -0.005600  1
  C  C20  1  -0.062200  0.524000  -0.080300  1
  C  C21  1  0.199800  0.382600  -0.110900  1
  C  C22  1  -0.327000  0.655100  -0.047200  1
  C  C23  1  -0.357600  0.697600  0.088100  1
  C  C24  1  0.590600  0.211200  0.019800  1
  C  C25  1  0.357600  0.302400  -0.088100  1
  C  C26  1  -0.125100  0.556400  -0.160800  1
  C  C27  1  -0.424900  0.714600  0.005600  1
  C  C28  1  -0.459100  0.761900  0.143900  1
  C  C29  1  0.678900  0.156500  -0.034900  1
  C  C30  1  0.459100  0.238100  -0.143900  1
  C  C31  1  -0.178300  0.593400  -0.226700  1
  C  C32  1  -0.590600  0.788800  -0.019800  1
  C  C33  1  -0.612600  0.831800  0.115300  1
  C  C34  1  0.612600  0.168200  -0.115300  1
  C  C35  1  -0.678900  0.843500  0.034900  1
  C  C36  1  0.871900  0.039300  -0.101100  1
  C  C37  1  -0.084600  0.797500  -0.353000  1
  C  C38  1  -0.314800  0.453400  -0.392300  1
  C  C39  1  -0.470600  0.777700  -0.322800  1
  C  C40  1  -0.871900  0.960700  0.101100  1
  C  C41  1  -0.021000  0.958400  -0.294900  1
  C  C42  1  -0.132000  0.850100  -0.437200  1
  C  C43  1  -0.139100  0.374000  -0.401100  1
  C  C44  1  -0.443100  0.317500  -0.365800  1
  C  C45  1  -0.594000  0.784900  -0.401900  1
  C  C46  1  -0.588900  0.679000  -0.269900  1
  H  H47  1  -0.021200  0.273200  0.350100  1
  H  H48  1  0.375600  0.514700  0.445100  1
  H  H49  1  0.431800  0.101800  0.298800  1
  H  H50  1  0.122200  -0.029300  0.293600  1
  H  H51  1  -0.024300  0.078600  0.242600  1
  H  H52  1  -0.075300  -0.026500  0.311600  1
  H  H53  1  0.026400  0.088400  0.449900  1
  H  H54  1  0.169200  0.253800  0.473300  1
  H  H55  1  0.230700  0.073900  0.442200  1
  H  H56  1  0.168100  0.736100  0.433400  1
  H  H57  1  0.067900  0.546000  0.426100  1
  H  H58  1  0.069700  0.646200  0.349400  1
  H  H59  1  0.388000  0.714400  0.313700  1
  H  H60  1  0.557600  0.633400  0.364200  1
  H  H61  1  0.464700  0.785700  0.402900  1
  H  H62  1  0.685100  0.133900  0.397400  1
  H  H63  1  0.523400  0.176200  0.439300  1
  H  H64  1  0.653500  0.330600  0.420200  1
  H  H65  1  0.514800  0.329400  0.217700  1
  H  H66  1  0.692900  0.256500  0.265500  1
  H  H67  1  0.630700  0.437900  0.294400  1
  H  H68  1  0.371900  0.334000  0.101300  1
  H  H69  1  -0.158000  0.602600  0.164700  1
  H  H70  1  0.158000  0.397400  -0.164700  1
  H  H71  1  -0.371900  0.666000  -0.101300  1
  H  H72  1  0.637300  0.200800  0.073700  1
  H  H73  1  -0.418400  0.754900  0.198400  1
  H  H74  1  0.418400  0.245100  -0.198400  1
  H  H75  1  -0.637300  0.799200  -0.073700  1
  H  H76  1  0.990000  0.094000  -0.105700  1
  H  H77  1  0.872800  -0.087800  -0.110500  1
  H  H78  1  0.021200  0.726800  -0.350100  1
  H  H79  1  -0.375600  0.485300  -0.445100  1
  H  H80  1  -0.431800  0.898200  -0.298800  1
  H  H81  1  -0.990000  0.906000  0.105700  1
  H  H82  1  -0.872800  1.087800  0.110500  1
  H  H83  1  -0.122200  1.029300  -0.293600  1
  H  H84  1  0.024300  0.921400  -0.242600  1
  H  H85  1  0.075300  1.026500  -0.311600  1
  H  H86  1  -0.026400  0.911600  -0.449900  1
  H  H87  1  -0.169200  0.746200  -0.473300  1
  H  H88  1  -0.230700  0.926100  -0.442200  1
  H  H89  1  -0.168100  0.263900  -0.433400  1
  H  H90  1  -0.067900  0.454000  -0.426100  1
  H  H91  1  -0.069700  0.353800  -0.349400  1
  H  H92  1  -0.388000  0.285600  -0.313700  1
  H  H93  1  -0.557600  0.366600  -0.364200  1
  H  H94  1  -0.464700  0.214300  -0.402900  1
  H  H95  1  -0.685100  0.866100  -0.397400  1
  H  H96  1  -0.523400  0.823800  -0.439300  1
  H  H97  1  -0.653500  0.669400  -0.420200  1
  H  H98  1  -0.514800  0.670600  -0.217700  1
  H  H99  1  -0.692900  0.743500  -0.265500  1
  H  H100  1  -0.630700  0.562100  -0.294400  1
  O  O101  1  0.839400  0.082600  -0.024530  1
  O  O102  1  -0.730500  0.898300  0.156920  1
  O  O103  1  0.730500  0.101700  -0.156920  1
  O  O104  1  -0.839400  0.917400  0.024530  1
  Si  Si105  1  0.266830  0.343820  0.325350  1.0
  Si  Si106  1  -0.266830  0.656180  -0.325350  1
