# generated using pymatgen
data_SiH19C17S
_symmetry_space_group_name_H-M   'P 1'
_cell_length_a   6.43550000
_cell_length_b   20.06700000
_cell_length_c   12.09400000
_cell_angle_alpha   90.00000000
_cell_angle_beta   92.20000000
_cell_angle_gamma   90.00000000
_symmetry_Int_Tables_number   1
_chemical_formula_structural   SiH19C17S
_chemical_formula_sum   'Si4 H76 C68 S4'
_cell_volume   1560.68221100
_cell_formula_units_Z   4
loop_
 _symmetry_equiv_pos_site_id
 _symmetry_equiv_pos_as_xyz
  1  'x, y, z'
loop_
 _atom_site_type_symbol
 _atom_site_label
 _atom_site_symmetry_multiplicity
 _atom_site_fract_x
 _atom_site_fract_y
 _atom_site_fract_z
 _atom_site_occupancy
  C  C1  1  0.815700  0.626780  0.738700  1
  C  C2  1  0.866800  0.760900  0.846100  1
  C  C3  1  0.437500  0.700300  0.801800  1
  C  C4  1  0.736400  0.639300  0.981300  1
  C  C5  1  0.862400  0.589120  0.666100  1
  C  C6  1  0.963300  0.629100  1.016200  1
  C  C7  1  0.629700  0.682700  1.067500  1
  C  C8  1  0.627400  0.572200  0.974400  1
  C  C9  1  0.927000  0.544390  0.580900  1
  C  C10  1  1.107600  0.507510  0.597700  1
  C  C11  1  0.814000  0.536640  0.480300  1
  C  C12  1  1.186000  0.463360  0.519700  1
  C  C13  1  0.892400  0.492490  0.402300  1
  C  C14  1  0.621200  0.567320  0.441500  1
  C  C15  1  1.073000  0.455610  0.419100  1
  C  C16  1  1.378800  0.432680  0.558500  1
  C  C17  1  1.437700  0.454850  0.665100  1
  C  C18  1  0.562300  0.545150  0.334900  1
  C  C19  1  0.490500  0.611540  0.494500  1
  C  C20  1  1.137600  0.410880  0.333900  1
  C  C21  1  1.509500  0.388460  0.505500  1
  C  C22  1  1.618900  0.432640  0.718900  1
  C  C23  1  0.381100  0.567360  0.281100  1
  C  C24  1  0.308800  0.632710  0.441200  1
  C  C25  1  1.184300  0.373220  0.261300  1
  C  C26  1  1.691200  0.367290  0.558800  1
  C  C27  1  1.745000  0.389170  0.664500  1
  C  C28  1  0.255000  0.610830  0.335500  1
  C  C29  1  1.133200  0.239100  0.153900  1
  C  C30  1  1.562500  0.299700  0.198200  1
  C  C31  1  1.263600  0.360700  0.018700  1
  C  C32  1  1.036700  0.370900  -0.016200  1
  C  C33  1  1.370300  0.317300  -0.067500  1
  C  C34  1  1.372600  0.427800  0.025600  1
  C  C35  1  1.184300  0.126780  -0.238700  1
  C  C36  1  1.133200  0.260900  -0.346100  1
  C  C37  1  1.562500  0.200300  -0.301800  1
  C  C38  1  1.263600  0.139300  -0.481300  1
  C  C39  1  1.137600  0.089120  -0.166100  1
  C  C40  1  1.036700  0.129100  -0.516200  1
  C  C41  1  1.370300  0.182700  -0.567500  1
  C  C42  1  1.372600  0.072200  -0.474400  1
  C  C43  1  1.073000  0.044390  -0.080900  1
  C  C44  1  0.892400  0.007510  -0.097700  1
  C  C45  1  1.186000  0.036640  0.019700  1
  C  C46  1  0.814000  -0.036640  -0.019700  1
  C  C47  1  1.107600  -0.007510  0.097700  1
  C  C48  1  1.378800  0.067320  0.058500  1
  C  C49  1  0.927000  -0.044390  0.080900  1
  C  C50  1  0.621200  -0.067320  -0.058500  1
  C  C51  1  0.562300  -0.045150  -0.165100  1
  C  C52  1  1.437700  0.045150  0.165100  1
  C  C53  1  1.509500  0.111540  0.005500  1
  C  C54  1  0.862400  -0.089120  0.166100  1
  C  C55  1  0.490500  -0.111540  -0.005500  1
  C  C56  1  0.381100  -0.067360  -0.218900  1
  C  C57  1  1.618900  0.067360  0.218900  1
  C  C58  1  1.691200  0.132710  0.058800  1
  C  C59  1  0.815700  -0.126780  0.238700  1
  C  C60  1  0.308800  -0.132710  -0.058800  1
  C  C61  1  0.255000  -0.110830  -0.164500  1
  C  C62  1  1.745000  0.110830  0.164500  1
  C  C63  1  0.866800  -0.260900  0.346100  1
  C  C64  1  0.437500  -0.200300  0.301800  1
  C  C65  1  0.736400  -0.139300  0.481300  1
  C  C66  1  0.963300  -0.129100  0.516200  1
  C  C67  1  0.629700  -0.182700  0.567500  1
  C  C68  1  0.627400  -0.072200  0.474400  1
  H  H69  1  1.013500  0.750500  0.862600  1
  H  H70  1  0.815600  0.790700  0.903200  1
  H  H71  1  0.852700  0.782800  0.773800  1
  H  H72  1  0.430300  0.718800  0.726800  1
  H  H73  1  0.379600  0.732500  0.853300  1
  H  H74  1  0.357400  0.658800  0.803500  1
  H  H75  1  0.972500  0.603600  1.085300  1
  H  H76  1  1.030300  0.672600  1.027600  1
  H  H77  1  1.033500  0.604700  0.958200  1
  H  H78  1  0.483300  0.689200  1.044700  1
  H  H79  1  0.699400  0.726000  1.073000  1
  H  H80  1  0.638500  0.660400  1.139700  1
  H  H81  1  0.695700  0.543800  0.920800  1
  H  H82  1  0.481500  0.578700  0.950700  1
  H  H83  1  0.634600  0.550800  1.047300  1
  H  H84  1  0.526500  0.627000  0.567000  1
  H  H85  1  1.473500  0.373000  0.433000  1
  H  H86  1  1.655200  0.447100  0.791900  1
  H  H87  1  0.344800  0.552900  0.208100  1
  H  H88  1  0.219700  0.662600  0.477600  1
  H  H89  1  1.780300  0.337400  0.522400  1
  H  H90  1  1.870500  0.374000  0.699900  1
  H  H91  1  0.129500  0.626000  0.300100  1
  H  H92  1  0.986500  0.249500  0.137400  1
  H  H93  1  1.184400  0.209300  0.096800  1
  H  H94  1  1.147300  0.217200  0.226200  1
  H  H95  1  1.569700  0.281200  0.273200  1
  H  H96  1  1.620400  0.267500  0.146700  1
  H  H97  1  1.642600  0.341200  0.196500  1
  H  H98  1  1.027500  0.396400  -0.085300  1
  H  H99  1  0.969700  0.327400  -0.027600  1
  H  H100  1  0.966500  0.395300  0.041800  1
  H  H101  1  1.516700  0.310800  -0.044700  1
  H  H102  1  1.300600  0.274000  -0.073000  1
  H  H103  1  1.361500  0.339600  -0.139700  1
  H  H104  1  1.304300  0.456200  0.079200  1
  H  H105  1  1.518500  0.421300  0.049300  1
  H  H106  1  1.365400  0.449200  -0.047300  1
  H  H107  1  0.986500  0.250500  -0.362600  1
  H  H108  1  1.184400  0.290700  -0.403200  1
  H  H109  1  1.147300  0.282800  -0.273800  1
  H  H110  1  1.569700  0.218800  -0.226800  1
  H  H111  1  1.620400  0.232500  -0.353300  1
  H  H112  1  1.642600  0.158800  -0.303500  1
  H  H113  1  1.027500  0.103600  -0.585300  1
  H  H114  1  0.969700  0.172600  -0.527600  1
  H  H115  1  0.966500  0.104700  -0.458200  1
  H  H116  1  1.516700  0.189200  -0.544700  1
  H  H117  1  1.300600  0.226000  -0.573000  1
  H  H118  1  1.361500  0.160400  -0.639700  1
  H  H119  1  1.304300  0.043800  -0.420800  1
  H  H120  1  1.518500  0.078700  -0.450700  1
  H  H121  1  1.365400  0.050800  -0.547300  1
  H  H122  1  1.473500  0.127000  -0.067000  1
  H  H123  1  0.526500  -0.127000  0.067000  1
  H  H124  1  0.344800  -0.052900  -0.291900  1
  H  H125  1  1.655200  0.052900  0.291900  1
  H  H126  1  1.780300  0.162600  0.022400  1
  H  H127  1  0.219700  -0.162600  -0.022400  1
  H  H128  1  0.129500  -0.126000  -0.199900  1
  H  H129  1  1.870500  0.126000  0.199900  1
  H  H130  1  1.013500  -0.250500  0.362600  1
  H  H131  1  0.815600  -0.290700  0.403200  1
  H  H132  1  0.852700  -0.282800  0.273800  1
  H  H133  1  0.430300  -0.218800  0.226800  1
  H  H134  1  0.379600  -0.232500  0.353300  1
  H  H135  1  0.357400  -0.158800  0.303500  1
  H  H136  1  0.972500  -0.103600  0.585300  1
  H  H137  1  1.030300  -0.172600  0.527600  1
  H  H138  1  1.033500  -0.104700  0.458200  1
  H  H139  1  0.483300  -0.189200  0.544700  1
  H  H140  1  0.699400  -0.226000  0.573000  1
  H  H141  1  0.638500  -0.160400  0.639700  1
  H  H142  1  0.695700  -0.043800  0.420800  1
  H  H143  1  0.481500  -0.078700  0.450700  1
  H  H144  1  0.634600  -0.050800  0.547300  1
  S  S145  1  1.262820  0.511430  0.719080  1
  S  S146  1  0.737180  0.488570  0.280920  1
  S  S147  1  0.737180  0.011430  -0.219080  1
  S  S148  1  1.262820  -0.011430  0.219080  1
  Si  Si149  1  0.713100  0.682980  0.843530  1.0
  Si  Si150  1  1.286900  0.317020  0.156470  1
  Si  Si151  1  1.286900  0.182980  -0.343530  1.0
  Si  Si152  1  0.713100  -0.182980  0.343530  1
