# generated using pymatgen
data_GeH19C17S
_symmetry_space_group_name_H-M   'P 1'
_cell_length_a   6.74620000
_cell_length_b   7.33770000
_cell_length_c   16.33720000
_cell_angle_alpha   92.23200000
_cell_angle_beta   93.74460000
_cell_angle_gamma   104.25150000
_symmetry_Int_Tables_number   1
_chemical_formula_structural   GeH19C17S
_chemical_formula_sum   'Ge2 H38 C34 S2'
_cell_volume   780.88844843
_cell_formula_units_Z   2
loop_
 _symmetry_equiv_pos_site_id
 _symmetry_equiv_pos_as_xyz
  1  'x, y, z'
loop_
 _atom_site_type_symbol
 _atom_site_label
 _atom_site_symmetry_multiplicity
 _atom_site_fract_x
 _atom_site_fract_y
 _atom_site_fract_z
 _atom_site_occupancy
  C  C1  1  0.275700  0.545900  0.721660  1
  C  C2  1  -0.124000  0.486600  0.814960  1
  C  C3  1  0.260800  0.331900  0.881370  1
  C  C4  1  0.292400  0.778000  0.889920  1
  C  C5  1  0.340100  0.537000  0.655110  1
  C  C6  1  -0.226300  0.326500  0.753000  1
  C  C7  1  0.148800  0.268000  0.956100  1
  C  C8  1  0.504300  0.879400  0.866760  1
  C  C9  1  0.418700  0.520600  0.576660  1
  C  C10  1  0.623800  0.617200  0.565330  1
  C  C11  1  0.293200  0.407100  0.512100  1
  C  C12  1  0.747600  0.738700  0.628720  1
  C  C13  1  0.706800  0.592900  0.487900  1
  C  C14  1  0.376200  0.382800  0.434670  1
  C  C15  1  0.085100  0.315700  0.522130  1
  C  C16  1  0.946300  0.827600  0.616080  1
  C  C17  1  0.581300  0.479400  0.423340  1
  C  C18  1  0.914900  0.684300  0.477870  1
  C  C19  1  0.252400  0.261300  0.371280  1
  C  C20  1  -0.033000  0.202600  0.459360  1
  C  C21  1  1.033000  0.797400  0.540640  1
  C  C22  1  0.659900  0.463000  0.344890  1
  C  C23  1  0.053700  0.172400  0.383920  1
  C  C24  1  -0.256900  0.097200  0.464600  1
  C  C25  1  1.256900  0.902800  0.535400  1
  C  C26  1  1.312700  1.002300  0.613150  1
  C  C27  1  0.724300  0.454100  0.278340  1
  C  C28  1  -0.312700  -0.002300  0.386850  1
  C  C29  1  1.124000  0.513400  0.185040  1
  C  C30  1  0.739200  0.668100  0.118630  1
  C  C31  1  0.707600  0.222000  0.110080  1
  C  C32  1  1.226300  0.673500  0.247000  1
  C  C33  1  0.851200  0.732000  0.043900  1
  C  C34  1  0.495700  0.120600  0.133240  1
  Ge  Ge35  1  0.174440  0.537130  0.828638  1.0
  Ge  Ge36  1  0.825560  0.462870  0.171362  1
  H  H37  1  -0.179400  0.457200  0.868900  1
  H  H38  1  -0.161400  0.602500  0.797800  1
  H  H39  1  0.238600  0.223400  0.840900  1
  H  H40  1  0.409600  0.373300  0.897600  1
  H  H41  1  0.198700  0.861300  0.880900  1
  H  H42  1  0.300700  0.755700  0.949300  1
  H  H43  1  -0.174800  0.354900  0.699000  1
  H  H44  1  -0.375100  0.311400  0.749500  1
  H  H45  1  -0.195100  0.209700  0.770400  1
  H  H46  1  0.173700  0.373300  0.997300  1
  H  H47  1  0.198600  0.164600  0.979100  1
  H  H48  1  0.001400  0.224600  0.940500  1
  H  H49  1  0.599600  0.799700  0.876900  1
  H  H50  1  0.552600  0.998100  0.900000  1
  H  H51  1  0.497400  0.905600  0.808400  1
  H  H52  1  0.693200  0.758400  0.679600  1
  H  H53  1  0.027800  0.333200  0.572600  1
  H  H54  1  0.972200  0.666800  0.427400  1
  H  H55  1  0.306800  0.241600  0.320400  1
  H  H56  1  -0.339600  0.098000  0.509400  1
  H  H57  1  1.339600  0.902000  0.490600  1
  H  H58  1  1.448100  1.077600  0.626300  1
  H  H59  1  -0.448100  -0.077600  0.373700  1
  H  H60  1  1.179400  0.542800  0.131100  1
  H  H61  1  1.161400  0.397500  0.202200  1
  H  H62  1  0.761400  0.776600  0.159100  1
  H  H63  1  0.590400  0.626700  0.102400  1
  H  H64  1  0.801300  0.138700  0.119100  1
  H  H65  1  0.699300  0.244300  0.050700  1
  H  H66  1  1.174800  0.645100  0.301000  1
  H  H67  1  1.375100  0.688600  0.250500  1
  H  H68  1  1.195100  0.790300  0.229600  1
  H  H69  1  0.826300  0.626700  0.002700  1
  H  H70  1  0.801400  0.835400  0.020900  1
  H  H71  1  0.998600  0.775400  0.059500  1
  H  H72  1  0.400400  0.200300  0.123100  1
  H  H73  1  0.447400  0.001900  0.100000  1
  H  H74  1  0.502600  0.094400  0.191600  1
  S  S75  1  1.127170  0.983200  0.683620  1
  S  S76  1  -0.127170  0.016800  0.316380  1
