# generated using pymatgen
data_GeH17C19F4
_symmetry_space_group_name_H-M   'P 1'
_cell_length_a   6.92510000
_cell_length_b   10.82460000
_cell_length_c   11.76440000
_cell_angle_alpha   93.63950000
_cell_angle_beta   95.00420000
_cell_angle_gamma   104.48250000
_symmetry_Int_Tables_number   1
_chemical_formula_structural   GeH17C19F4
_chemical_formula_sum   'Ge2 H34 C38 F8'
_cell_volume   847.26699864
_cell_formula_units_Z   2
loop_
 _symmetry_equiv_pos_site_id
 _symmetry_equiv_pos_as_xyz
  1  'x, y, z'
loop_
 _atom_site_type_symbol
 _atom_site_label
 _atom_site_symmetry_multiplicity
 _atom_site_fract_x
 _atom_site_fract_y
 _atom_site_fract_z
 _atom_site_occupancy
  C  C1  1  0.640600  0.704700  0.227920  1
  C  C2  1  0.993100  0.797600  0.080600  1
  C  C3  1  0.543400  0.801100  -0.012500  1
  C  C4  1  0.774900  0.996000  0.201100  1
  C  C5  1  0.593000  0.639100  0.304320  1
  C  C6  1  1.020500  0.666667  0.097800  1
  C  C7  1  0.483700  0.665600  -0.070700  1
  C  C8  1  0.594900  1.010700  0.261200  1
  C  C9  1  0.543400  0.566650  0.400600  1
  C  C10  1  0.395000  0.592220  0.468070  1
  C  C11  1  0.648300  0.475180  0.431020  1
  C  C12  1  0.287800  0.681860  0.438100  1
  C  C13  1  0.351700  0.524820  0.568980  1
  C  C14  1  0.605000  0.407780  0.531930  1
  C  C15  1  0.796700  0.448400  0.365790  1
  C  C16  1  0.141600  0.706580  0.503040  1
  C  C17  1  0.456600  0.433350  0.599400  1
  C  C18  1  0.203300  0.551600  0.634210  1
  C  C19  1  0.712200  0.318140  0.561900  1
  C  C20  1  0.900500  0.359840  0.395880  1
  C  C21  1  0.028200  0.794800  0.472580  1
  C  C22  1  0.099500  0.640160  0.604120  1
  C  C23  1  0.407000  0.360900  0.695680  1
  C  C24  1  0.858400  0.293420  0.496960  1
  C  C25  1  1.051500  0.331400  0.331290  1
  C  C26  1  -0.114500  0.816700  0.535650  1
  C  C27  1  -0.051500  0.668600  0.668710  1
  C  C28  1  0.359400  0.295300  0.772080  1
  C  C29  1  0.971800  0.205200  0.527420  1
  C  C30  1  1.154100  0.247000  0.363510  1
  C  C31  1  -0.154100  0.753000  0.636490  1
  C  C32  1  1.114500  0.183300  0.464350  1
  C  C33  1  0.006900  0.202400  0.919400  1
  C  C34  1  0.456600  0.198900  1.012500  1
  C  C35  1  0.225100  0.004000  0.798900  1
  C  C36  1  -0.020500  0.333333  0.902200  1
  C  C37  1  0.516300  0.334400  1.070700  1
  C  C38  1  0.405100  -0.010700  0.738800  1
  F  F39  1  0.064500  0.855240  0.377130  1
  F  F40  1  1.089600  0.390990  0.235190  1
  F  F41  1  -0.225700  0.897450  0.506050  1
  F  F42  1  -0.089600  0.609010  0.764810  1
  F  F43  1  0.935500  0.144760  0.622870  1
  F  F44  1  1.295100  0.219220  0.301900  1
  F  F45  1  -0.295100  0.780780  0.698100  1
  F  F46  1  1.225700  0.102550  0.493950  1
  Ge  Ge47  1  0.740060  0.826830  0.120730  1.0
  Ge  Ge48  1  0.259940  0.173170  0.879270  1
  H  H49  1  1.004600  0.813000  -0.000900  1
  H  H50  1  1.104200  0.861600  0.126800  1
  H  H51  1  0.421600  0.823200  0.011300  1
  H  H52  1  0.598300  0.861000  -0.068900  1
  H  H53  1  0.893700  1.013400  0.258600  1
  H  H54  1  0.802200  1.061300  0.145300  1
  H  H55  1  0.996600  0.646500  0.176200  1
  H  H56  1  1.157700  0.664700  0.085000  1
  H  H57  1  0.925100  0.603300  0.043400  1
  H  H58  1  0.602000  0.644200  -0.098200  1
  H  H59  1  0.382200  0.659900  -0.135600  1
  H  H60  1  0.428600  0.605400  -0.015800  1
  H  H61  1  0.476100  0.993600  0.205100  1
  H  H62  1  0.621600  1.098200  0.297500  1
  H  H63  1  0.571000  0.949700  0.319800  1
  H  H64  1  0.316000  0.726400  0.372000  1
  H  H65  1  0.826000  0.492300  0.299500  1
  H  H66  1  0.174000  0.507700  0.700500  1
  H  H67  1  0.684000  0.273600  0.628000  1
  H  H68  1  -0.004600  0.187000  1.000900  1
  H  H69  1  -0.104200  0.138400  0.873200  1
  H  H70  1  0.578400  0.176800  0.988700  1
  H  H71  1  0.401700  0.139000  1.068900  1
  H  H72  1  0.106300  -0.013400  0.741400  1
  H  H73  1  0.197800  -0.061300  0.854700  1
  H  H74  1  0.003400  0.353500  0.823800  1
  H  H75  1  -0.157700  0.335300  0.915000  1
  H  H76  1  0.074900  0.396700  0.956600  1
  H  H77  1  0.398000  0.355800  1.098200  1
  H  H78  1  0.617800  0.340100  1.135600  1
  H  H79  1  0.571400  0.394600  1.015800  1
  H  H80  1  0.523900  0.006400  0.794900  1
  H  H81  1  0.378400  -0.098200  0.702500  1
  H  H82  1  0.429000  0.050300  0.680200  1
