# generated using pymatgen
data_SiH25C18
_symmetry_space_group_name_H-M   'P 1'
_cell_length_a   14.88000000
_cell_length_b   14.26000000
_cell_length_c   30.73000000
_cell_angle_alpha   90.00000000
_cell_angle_beta   90.00000000
_cell_angle_gamma   90.00000000
_symmetry_Int_Tables_number   1
_chemical_formula_structural   SiH25C18
_chemical_formula_sum   'Si16 H400 C288'
_cell_volume   6520.56182400
_cell_formula_units_Z   16
loop_
 _symmetry_equiv_pos_site_id
 _symmetry_equiv_pos_as_xyz
  1  'x, y, z'
loop_
 _atom_site_type_symbol
 _atom_site_label
 _atom_site_symmetry_multiplicity
 _atom_site_fract_x
 _atom_site_fract_y
 _atom_site_fract_z
 _atom_site_occupancy
  C  C1  1  0.856100  0.257800  0.202800  1
  C  C2  1  0.683800  0.155600  0.206600  1
  C  C3  1  0.763600  0.237500  0.290000  1
  C  C4  1  0.698300  0.377900  0.221200  1
  C  C5  1  0.923900  0.258300  0.181600  1
  C  C6  1  0.688300  0.140400  0.160300  1
  C  C7  1  0.590800  0.139500  0.227400  1
  C  C8  1  0.804100  0.142000  0.300500  1
  C  C9  1  0.820200  0.315200  0.310700  1
  C  C10  1  0.610900  0.397100  0.246000  1
  C  C11  1  0.685800  0.400100  0.172800  1
  C  C12  1  1.002700  0.258800  0.153900  1
  C  C13  1  1.034800  0.344500  0.136900  1
  C  C14  1  1.043800  0.173000  0.142800  1
  C  C15  1  0.994900  0.432500  0.146400  1
  C  C16  1  1.110900  0.344000  0.108400  1
  C  C17  1  1.118600  0.173100  0.113200  1
  C  C18  1  1.013200  0.085500  0.159600  1
  C  C19  1  1.026000  0.514600  0.130300  1
  C  C20  1  1.141500  0.431500  0.091300  1
  C  C21  1  1.151300  0.258200  0.096500  1
  C  C22  1  1.157300  0.084600  0.101900  1
  C  C23  1  1.051800  0.003100  0.147500  1
  C  C24  1  1.100700  0.512700  0.101700  1
  C  C25  1  1.227300  0.258500  0.067200  1
  C  C26  1  1.125400  0.003400  0.117800  1
  C  C27  1  1.289200  0.265400  0.042400  1
  C  C28  1  1.402800  0.201800  -0.035800  1
  C  C29  1  1.477500  0.339000  0.034300  1
  C  C30  1  1.323500  0.404700  -0.026700  1
  C  C31  1  1.324200  0.172400  -0.065400  1
  C  C32  1  1.441800  0.115400  -0.013300  1
  C  C33  1  1.496900  0.280800  0.075500  1
  C  C34  1  1.561800  0.345600  0.006400  1
  C  C35  1  1.375500  0.433400  -0.067500  1
  C  C36  1  1.223100  0.393900  -0.037000  1
  C  C37  1  1.643900  0.742200  -0.297200  1
  C  C38  1  1.816200  0.844400  -0.293400  1
  C  C39  1  1.736400  0.762500  -0.210000  1
  C  C40  1  1.801700  0.622100  -0.278800  1
  C  C41  1  1.576100  0.741700  -0.318400  1
  C  C42  1  1.811700  0.859600  -0.339700  1
  C  C43  1  1.909200  0.860500  -0.272600  1
  C  C44  1  1.695900  0.858000  -0.199500  1
  C  C45  1  1.679800  0.684800  -0.189300  1
  C  C46  1  1.889100  0.602900  -0.254000  1
  C  C47  1  1.814200  0.599900  -0.327200  1
  C  C48  1  1.497300  0.741200  -0.346100  1
  C  C49  1  1.465200  0.655500  -0.363100  1
  C  C50  1  1.456200  0.827000  -0.357200  1
  C  C51  1  1.505100  0.567500  -0.353600  1
  C  C52  1  1.389100  0.656000  -0.391600  1
  C  C53  1  1.381400  0.826900  -0.386800  1
  C  C54  1  1.486800  0.914500  -0.340400  1
  C  C55  1  1.474000  0.485400  -0.369700  1
  C  C56  1  1.358500  0.568500  -0.408700  1
  C  C57  1  1.348700  0.741800  -0.403500  1
  C  C58  1  1.342700  0.915400  -0.398100  1
  C  C59  1  1.448200  0.996900  -0.352500  1
  C  C60  1  1.399300  0.487300  -0.398300  1
  C  C61  1  1.272700  0.741500  -0.432800  1
  C  C62  1  1.374600  0.996600  -0.382200  1
  C  C63  1  1.210800  0.734600  -0.457600  1
  C  C64  1  1.097200  0.798200  -0.535800  1
  C  C65  1  1.022500  0.661000  -0.465700  1
  C  C66  1  1.176500  0.595300  -0.526700  1
  C  C67  1  1.175800  0.827600  -0.565400  1
  C  C68  1  1.058200  0.884600  -0.513300  1
  C  C69  1  1.003100  0.719200  -0.424500  1
  C  C70  1  0.938200  0.654400  -0.493600  1
  C  C71  1  1.124500  0.566600  -0.567500  1
  C  C72  1  1.276900  0.606100  -0.537000  1
  C  C73  1  0.356100  0.242200  -0.202800  1
  C  C74  1  0.183800  0.344400  -0.206600  1
  C  C75  1  0.263600  0.262500  -0.290000  1
  C  C76  1  0.198300  0.122100  -0.221200  1
  C  C77  1  0.423900  0.241700  -0.181600  1
  C  C78  1  0.188300  0.359600  -0.160300  1
  C  C79  1  0.090800  0.360500  -0.227400  1
  C  C80  1  0.304100  0.358000  -0.300500  1
  C  C81  1  0.320200  0.184800  -0.310700  1
  C  C82  1  0.110900  0.102900  -0.246000  1
  C  C83  1  0.185800  0.099900  -0.172800  1
  C  C84  1  0.502700  0.241200  -0.153900  1
  C  C85  1  0.534800  0.155500  -0.136900  1
  C  C86  1  0.543800  0.327000  -0.142800  1
  C  C87  1  0.494900  0.067500  -0.146400  1
  C  C88  1  0.610900  0.156000  -0.108400  1
  C  C89  1  0.618600  0.326900  -0.113200  1
  C  C90  1  0.513200  0.414500  -0.159600  1
  C  C91  1  0.526000  -0.014600  -0.130300  1
  C  C92  1  0.641500  0.068500  -0.091300  1
  C  C93  1  0.651300  0.241800  -0.096500  1
  C  C94  1  0.657300  0.415400  -0.101900  1
  C  C95  1  0.551800  0.496900  -0.147500  1
  C  C96  1  0.600700  -0.012700  -0.101700  1
  C  C97  1  0.727300  0.241500  -0.067200  1
  C  C98  1  0.625400  0.496600  -0.117800  1
  C  C99  1  0.789200  0.234600  -0.042400  1
  C  C100  1  0.902800  0.298200  0.035800  1
  C  C101  1  0.977500  0.161000  -0.034300  1
  C  C102  1  0.823500  0.095300  0.026700  1
  C  C103  1  0.824200  0.327600  0.065400  1
  C  C104  1  0.941800  0.384600  0.013300  1
  C  C105  1  0.996900  0.219200  -0.075500  1
  C  C106  1  1.061800  0.154400  -0.006400  1
  C  C107  1  0.875500  0.066600  0.067500  1
  C  C108  1  0.723100  0.106100  0.037000  1
  C  C109  1  1.143900  -0.242200  0.297200  1
  C  C110  1  1.316200  -0.344400  0.293400  1
  C  C111  1  1.236400  -0.262500  0.210000  1
  C  C112  1  1.301700  -0.122100  0.278800  1
  C  C113  1  1.076100  -0.241700  0.318400  1
  C  C114  1  1.311700  -0.359600  0.339700  1
  C  C115  1  1.409200  -0.360500  0.272600  1
  C  C116  1  1.195900  -0.358000  0.199500  1
  C  C117  1  1.179800  -0.184800  0.189300  1
  C  C118  1  1.389100  -0.102900  0.254000  1
  C  C119  1  1.314200  -0.099900  0.327200  1
  C  C120  1  0.997300  -0.241200  0.346100  1
  C  C121  1  0.965200  -0.155500  0.363100  1
  C  C122  1  0.956200  -0.327000  0.357200  1
  C  C123  1  1.005100  -0.067500  0.353600  1
  C  C124  1  0.889100  -0.156000  0.391600  1
  C  C125  1  0.881400  -0.326900  0.386800  1
  C  C126  1  0.986800  -0.414500  0.340400  1
  C  C127  1  0.974000  0.014600  0.369700  1
  C  C128  1  0.858500  -0.068500  0.408700  1
  C  C129  1  0.848700  -0.241800  0.403500  1
  C  C130  1  0.842700  -0.415400  0.398100  1
  C  C131  1  0.948200  -0.496900  0.352500  1
  C  C132  1  0.899300  0.012700  0.398300  1
  C  C133  1  0.772700  -0.241500  0.432800  1
  C  C134  1  0.874600  -0.496600  0.382200  1
  C  C135  1  0.710800  -0.234600  0.457600  1
  C  C136  1  0.597200  -0.298200  0.535800  1
  C  C137  1  0.522500  -0.161000  0.465700  1
  C  C138  1  0.676500  -0.095300  0.526700  1
  C  C139  1  0.675800  -0.327600  0.565400  1
  C  C140  1  0.558200  -0.384600  0.513300  1
  C  C141  1  0.503100  -0.219200  0.424500  1
  C  C142  1  0.438200  -0.154400  0.493600  1
  C  C143  1  0.624500  -0.066600  0.567500  1
  C  C144  1  0.776900  -0.106100  0.537000  1
  C  C145  1  1.143900  0.742200  -0.202800  1
  C  C146  1  1.316200  0.844400  -0.206600  1
  C  C147  1  1.236400  0.762500  -0.290000  1
  C  C148  1  1.301700  0.622100  -0.221200  1
  C  C149  1  1.076100  0.741700  -0.181600  1
  C  C150  1  1.311700  0.859600  -0.160300  1
  C  C151  1  1.409200  0.860500  -0.227400  1
  C  C152  1  1.195900  0.858000  -0.300500  1
  C  C153  1  1.179800  0.684800  -0.310700  1
  C  C154  1  1.389100  0.602900  -0.246000  1
  C  C155  1  1.314200  0.599900  -0.172800  1
  C  C156  1  0.997300  0.741200  -0.153900  1
  C  C157  1  0.965200  0.655500  -0.136900  1
  C  C158  1  0.956200  0.827000  -0.142800  1
  C  C159  1  1.005100  0.567500  -0.146400  1
  C  C160  1  0.889100  0.656000  -0.108400  1
  C  C161  1  0.881400  0.826900  -0.113200  1
  C  C162  1  0.986800  0.914500  -0.159600  1
  C  C163  1  0.974000  0.485400  -0.130300  1
  C  C164  1  0.858500  0.568500  -0.091300  1
  C  C165  1  0.848700  0.741800  -0.096500  1
  C  C166  1  0.842700  0.915400  -0.101900  1
  C  C167  1  0.948200  0.996900  -0.147500  1
  C  C168  1  0.899300  0.487300  -0.101700  1
  C  C169  1  0.772700  0.741500  -0.067200  1
  C  C170  1  0.874600  0.996600  -0.117800  1
  C  C171  1  0.710800  0.734600  -0.042400  1
  C  C172  1  0.597200  0.798200  0.035800  1
  C  C173  1  0.522500  0.661000  -0.034300  1
  C  C174  1  0.676500  0.595300  0.026700  1
  C  C175  1  0.675800  0.827600  0.065400  1
  C  C176  1  0.558200  0.884600  0.013300  1
  C  C177  1  0.503100  0.719200  -0.075500  1
  C  C178  1  0.438200  0.654400  -0.006400  1
  C  C179  1  0.624500  0.566600  0.067500  1
  C  C180  1  0.776900  0.606100  0.037000  1
  C  C181  1  0.356100  0.257800  0.297200  1
  C  C182  1  0.183800  0.155600  0.293400  1
  C  C183  1  0.263600  0.237500  0.210000  1
  C  C184  1  0.198300  0.377900  0.278800  1
  C  C185  1  0.423900  0.258300  0.318400  1
  C  C186  1  0.188300  0.140400  0.339700  1
  C  C187  1  0.090800  0.139500  0.272600  1
  C  C188  1  0.304100  0.142000  0.199500  1
  C  C189  1  0.320200  0.315200  0.189300  1
  C  C190  1  0.110900  0.397100  0.254000  1
  C  C191  1  0.185800  0.400100  0.327200  1
  C  C192  1  0.502700  0.258800  0.346100  1
  C  C193  1  0.534800  0.344500  0.363100  1
  C  C194  1  0.543800  0.173000  0.357200  1
  C  C195  1  0.494900  0.432500  0.353600  1
  C  C196  1  0.610900  0.344000  0.391600  1
  C  C197  1  0.618600  0.173100  0.386800  1
  C  C198  1  0.513200  0.085500  0.340400  1
  C  C199  1  0.526000  0.514600  0.369700  1
  C  C200  1  0.641500  0.431500  0.408700  1
  C  C201  1  0.651300  0.258200  0.403500  1
  C  C202  1  0.657300  0.084600  0.398100  1
  C  C203  1  0.551800  0.003100  0.352500  1
  C  C204  1  0.600700  0.512700  0.398300  1
  C  C205  1  0.727300  0.258500  0.432800  1
  C  C206  1  0.625400  0.003400  0.382200  1
  C  C207  1  0.789200  0.265400  0.457600  1
  C  C208  1  0.902800  0.201800  0.535800  1
  C  C209  1  0.977500  0.339000  0.465700  1
  C  C210  1  0.823500  0.404700  0.526700  1
  C  C211  1  0.824200  0.172400  0.565400  1
  C  C212  1  0.941800  0.115400  0.513300  1
  C  C213  1  0.996900  0.280800  0.424500  1
  C  C214  1  1.061800  0.345600  0.493600  1
  C  C215  1  0.875500  0.433400  0.567500  1
  C  C216  1  0.723100  0.393900  0.537000  1
  C  C217  1  1.643900  -0.242200  0.202800  1
  C  C218  1  1.816200  -0.344400  0.206600  1
  C  C219  1  1.736400  -0.262500  0.290000  1
  C  C220  1  1.801700  -0.122100  0.221200  1
  C  C221  1  1.576100  -0.241700  0.181600  1
  C  C222  1  1.811700  -0.359600  0.160300  1
  C  C223  1  1.909200  -0.360500  0.227400  1
  C  C224  1  1.695900  -0.358000  0.300500  1
  C  C225  1  1.679800  -0.184800  0.310700  1
  C  C226  1  1.889100  -0.102900  0.246000  1
  C  C227  1  1.814200  -0.099900  0.172800  1
  C  C228  1  1.497300  -0.241200  0.153900  1
  C  C229  1  1.465200  -0.155500  0.136900  1
  C  C230  1  1.456200  -0.327000  0.142800  1
  C  C231  1  1.505100  -0.067500  0.146400  1
  C  C232  1  1.389100  -0.156000  0.108400  1
  C  C233  1  1.381400  -0.326900  0.113200  1
  C  C234  1  1.486800  -0.414500  0.159600  1
  C  C235  1  1.474000  0.014600  0.130300  1
  C  C236  1  1.358500  -0.068500  0.091300  1
  C  C237  1  1.348700  -0.241800  0.096500  1
  C  C238  1  1.342700  -0.415400  0.101900  1
  C  C239  1  1.448200  -0.496900  0.147500  1
  C  C240  1  1.399300  0.012700  0.101700  1
  C  C241  1  1.272700  -0.241500  0.067200  1
  C  C242  1  1.374600  -0.496600  0.117800  1
  C  C243  1  1.210800  -0.234600  0.042400  1
  C  C244  1  1.097200  -0.298200  -0.035800  1
  C  C245  1  1.022500  -0.161000  0.034300  1
  C  C246  1  1.176500  -0.095300  -0.026700  1
  C  C247  1  1.175800  -0.327600  -0.065400  1
  C  C248  1  1.058200  -0.384600  -0.013300  1
  C  C249  1  1.003100  -0.219200  0.075500  1
  C  C250  1  0.938200  -0.154400  0.006400  1
  C  C251  1  1.124500  -0.066600  -0.067500  1
  C  C252  1  1.276900  -0.106100  -0.037000  1
  C  C253  1  0.856100  0.242200  -0.297200  1
  C  C254  1  0.683800  0.344400  -0.293400  1
  C  C255  1  0.763600  0.262500  -0.210000  1
  C  C256  1  0.698300  0.122100  -0.278800  1
  C  C257  1  0.923900  0.241700  -0.318400  1
  C  C258  1  0.688300  0.359600  -0.339700  1
  C  C259  1  0.590800  0.360500  -0.272600  1
  C  C260  1  0.804100  0.358000  -0.199500  1
  C  C261  1  0.820200  0.184800  -0.189300  1
  C  C262  1  0.610900  0.102900  -0.254000  1
  C  C263  1  0.685800  0.099900  -0.327200  1
  C  C264  1  1.002700  0.241200  -0.346100  1
  C  C265  1  1.034800  0.155500  -0.363100  1
  C  C266  1  1.043800  0.327000  -0.357200  1
  C  C267  1  0.994900  0.067500  -0.353600  1
  C  C268  1  1.110900  0.156000  -0.391600  1
  C  C269  1  1.118600  0.326900  -0.386800  1
  C  C270  1  1.013200  0.414500  -0.340400  1
  C  C271  1  1.026000  -0.014600  -0.369700  1
  C  C272  1  1.141500  0.068500  -0.408700  1
  C  C273  1  1.151300  0.241800  -0.403500  1
  C  C274  1  1.157300  0.415400  -0.398100  1
  C  C275  1  1.051800  0.496900  -0.352500  1
  C  C276  1  1.100700  -0.012700  -0.398300  1
  C  C277  1  1.227300  0.241500  -0.432800  1
  C  C278  1  1.125400  0.496600  -0.382200  1
  C  C279  1  1.289200  0.234600  -0.457600  1
  C  C280  1  1.402800  0.298200  -0.535800  1
  C  C281  1  1.477500  0.161000  -0.465700  1
  C  C282  1  1.323500  0.095300  -0.526700  1
  C  C283  1  1.324200  0.327600  -0.565400  1
  C  C284  1  1.441800  0.384600  -0.513300  1
  C  C285  1  1.496900  0.219200  -0.424500  1
  C  C286  1  1.561800  0.154400  -0.493600  1
  C  C287  1  1.375500  0.066600  -0.567500  1
  C  C288  1  1.223100  0.106100  -0.537000  1
  H  H289  1  0.718900  0.101100  0.218000  1
  H  H290  1  0.703000  0.239700  0.304100  1
  H  H291  1  0.743800  0.423500  0.232500  1
  H  H292  1  0.750400  0.148100  0.150400  1
  H  H293  1  0.649700  0.186000  0.145500  1
  H  H294  1  0.667600  0.076800  0.153600  1
  H  H295  1  0.595100  0.147800  0.259000  1
  H  H296  1  0.570300  0.075700  0.220900  1
  H  H297  1  0.547800  0.184800  0.215500  1
  H  H298  1  0.767200  0.092600  0.287300  1
  H  H299  1  0.805900  0.133200  0.332100  1
  H  H300  1  0.865300  0.138600  0.288800  1
  H  H301  1  0.792500  0.376200  0.304600  1
  H  H302  1  0.881000  0.313700  0.298400  1
  H  H303  1  0.823200  0.305400  0.342200  1
  H  H304  1  0.620100  0.384700  0.277000  1
  H  H305  1  0.563300  0.356100  0.234800  1
  H  H306  1  0.593400  0.462800  0.241900  1
  H  H307  1  0.742500  0.389600  0.157400  1
  H  H308  1  0.667500  0.465700  0.169400  1
  H  H309  1  0.639200  0.359100  0.160600  1
  H  H310  1  0.943800  0.433800  0.164900  1
  H  H311  1  0.964600  0.084700  0.179600  1
  H  H312  1  0.998400  0.572300  0.138100  1
  H  H313  1  1.191700  0.432400  0.072200  1
  H  H314  1  1.207000  0.083100  0.082500  1
  H  H315  1  1.029900  -0.054500  0.158800  1
  H  H316  1  1.122300  0.569800  0.089600  1
  H  H317  1  1.152000  -0.054200  0.109200  1
  H  H318  1  1.451100  0.225700  -0.055500  1
  H  H319  1  1.464500  0.404200  0.044600  1
  H  H320  1  1.328400  0.458700  -0.006100  1
  H  H321  1  1.299300  0.228000  -0.079800  1
  H  H322  1  1.277400  0.142300  -0.047800  1
  H  H323  1  1.345900  0.128200  -0.087400  1
  H  H324  1  1.492500  0.134100  0.005200  1
  H  H325  1  1.462500  0.070600  -0.035200  1
  H  H326  1  1.395300  0.086000  0.004800  1
  H  H327  1  1.442300  0.276800  0.093200  1
  H  H328  1  1.544800  0.311000  0.092300  1
  H  H329  1  1.516000  0.217600  0.067100  1
  H  H330  1  1.549200  0.383400  -0.019500  1
  H  H331  1  1.580400  0.282500  -0.002500  1
  H  H332  1  1.610100  0.375000  0.023300  1
  H  H333  1  1.439300  0.441100  -0.060200  1
  H  H334  1  1.351600  0.492800  -0.078600  1
  H  H335  1  1.369100  0.384700  -0.089700  1
  H  H336  1  1.190600  0.377600  -0.010300  1
  H  H337  1  1.214900  0.344100  -0.058600  1
  H  H338  1  1.199700  0.453100  -0.048600  1
  H  H339  1  1.781100  0.898900  -0.282000  1
  H  H340  1  1.797000  0.760300  -0.195900  1
  H  H341  1  1.756200  0.576500  -0.267500  1
  H  H342  1  1.749600  0.851900  -0.349600  1
  H  H343  1  1.850300  0.814000  -0.354500  1
  H  H344  1  1.832400  0.923200  -0.346400  1
  H  H345  1  1.904900  0.852200  -0.241000  1
  H  H346  1  1.929700  0.924300  -0.279100  1
  H  H347  1  1.952200  0.815200  -0.284500  1
  H  H348  1  1.732800  0.907400  -0.212700  1
  H  H349  1  1.694100  0.866800  -0.167900  1
  H  H350  1  1.634700  0.861400  -0.211200  1
  H  H351  1  1.707500  0.623800  -0.195400  1
  H  H352  1  1.619000  0.686300  -0.201600  1
  H  H353  1  1.676800  0.694600  -0.157800  1
  H  H354  1  1.879900  0.615300  -0.223000  1
  H  H355  1  1.936700  0.643900  -0.265200  1
  H  H356  1  1.906600  0.537200  -0.258100  1
  H  H357  1  1.757500  0.610400  -0.342600  1
  H  H358  1  1.832500  0.534300  -0.330600  1
  H  H359  1  1.860800  0.640900  -0.339400  1
  H  H360  1  1.556200  0.566200  -0.335100  1
  H  H361  1  1.535400  0.915300  -0.320400  1
  H  H362  1  1.501600  0.427700  -0.361900  1
  H  H363  1  1.308300  0.567600  -0.427800  1
  H  H364  1  1.293000  0.916900  -0.417500  1
  H  H365  1  1.470100  1.054500  -0.341200  1
  H  H366  1  1.377700  0.430200  -0.410400  1
  H  H367  1  1.348000  1.054200  -0.390800  1
  H  H368  1  1.048900  0.774300  -0.555500  1
  H  H369  1  1.035500  0.595800  -0.455400  1
  H  H370  1  1.171600  0.541300  -0.506100  1
  H  H371  1  1.200700  0.772000  -0.579800  1
  H  H372  1  1.222600  0.857700  -0.547800  1
  H  H373  1  1.154100  0.871800  -0.587400  1
  H  H374  1  1.007500  0.865900  -0.494800  1
  H  H375  1  1.037500  0.929400  -0.535200  1
  H  H376  1  1.104700  0.914000  -0.495200  1
  H  H377  1  1.057700  0.723200  -0.406800  1
  H  H378  1  0.955200  0.689000  -0.407700  1
  H  H379  1  0.984000  0.782400  -0.432900  1
  H  H380  1  0.950800  0.616600  -0.519500  1
  H  H381  1  0.919600  0.717500  -0.502500  1
  H  H382  1  0.889900  0.625000  -0.476700  1
  H  H383  1  1.060700  0.558900  -0.560200  1
  H  H384  1  1.148400  0.507200  -0.578600  1
  H  H385  1  1.130900  0.615300  -0.589700  1
  H  H386  1  1.309400  0.622400  -0.510300  1
  H  H387  1  1.285100  0.655900  -0.558600  1
  H  H388  1  1.300300  0.546900  -0.548600  1
  H  H389  1  0.218900  0.398900  -0.218000  1
  H  H390  1  0.203000  0.260300  -0.304100  1
  H  H391  1  0.243800  0.076500  -0.232500  1
  H  H392  1  0.250400  0.351900  -0.150400  1
  H  H393  1  0.149700  0.314000  -0.145500  1
  H  H394  1  0.167600  0.423200  -0.153600  1
  H  H395  1  0.095100  0.352200  -0.259000  1
  H  H396  1  0.070300  0.424300  -0.220900  1
  H  H397  1  0.047800  0.315200  -0.215500  1
  H  H398  1  0.267200  0.407400  -0.287300  1
  H  H399  1  0.305900  0.366800  -0.332100  1
  H  H400  1  0.365300  0.361400  -0.288800  1
  H  H401  1  0.292500  0.123800  -0.304600  1
  H  H402  1  0.381000  0.186300  -0.298400  1
  H  H403  1  0.323200  0.194600  -0.342200  1
  H  H404  1  0.120100  0.115300  -0.277000  1
  H  H405  1  0.063300  0.143900  -0.234800  1
  H  H406  1  0.093400  0.037200  -0.241900  1
  H  H407  1  0.242500  0.110400  -0.157400  1
  H  H408  1  0.167500  0.034300  -0.169400  1
  H  H409  1  0.139200  0.140900  -0.160600  1
  H  H410  1  0.443800  0.066200  -0.164900  1
  H  H411  1  0.464600  0.415300  -0.179600  1
  H  H412  1  0.498400  -0.072300  -0.138100  1
  H  H413  1  0.691700  0.067600  -0.072200  1
  H  H414  1  0.707000  0.416900  -0.082500  1
  H  H415  1  0.529900  0.554500  -0.158800  1
  H  H416  1  0.622300  -0.069800  -0.089600  1
  H  H417  1  0.652000  0.554200  -0.109200  1
  H  H418  1  0.951100  0.274300  0.055500  1
  H  H419  1  0.964500  0.095800  -0.044600  1
  H  H420  1  0.828400  0.041300  0.006100  1
  H  H421  1  0.799300  0.272000  0.079800  1
  H  H422  1  0.777400  0.357700  0.047800  1
  H  H423  1  0.845900  0.371800  0.087400  1
  H  H424  1  0.992500  0.365900  -0.005200  1
  H  H425  1  0.962500  0.429400  0.035200  1
  H  H426  1  0.895300  0.414000  -0.004800  1
  H  H427  1  0.942300  0.223200  -0.093200  1
  H  H428  1  1.044800  0.189000  -0.092300  1
  H  H429  1  1.016000  0.282400  -0.067100  1
  H  H430  1  1.049200  0.116600  0.019500  1
  H  H431  1  1.080400  0.217500  0.002500  1
  H  H432  1  1.110100  0.125000  -0.023300  1
  H  H433  1  0.939300  0.058900  0.060200  1
  H  H434  1  0.851600  0.007200  0.078600  1
  H  H435  1  0.869100  0.115300  0.089700  1
  H  H436  1  0.690600  0.122400  0.010300  1
  H  H437  1  0.714900  0.155900  0.058600  1
  H  H438  1  0.699700  0.046900  0.048600  1
  H  H439  1  1.281100  -0.398900  0.282000  1
  H  H440  1  1.297000  -0.260300  0.195900  1
  H  H441  1  1.256200  -0.076500  0.267500  1
  H  H442  1  1.249600  -0.351900  0.349600  1
  H  H443  1  1.350300  -0.314000  0.354500  1
  H  H444  1  1.332400  -0.423200  0.346400  1
  H  H445  1  1.404900  -0.352200  0.241000  1
  H  H446  1  1.429700  -0.424300  0.279100  1
  H  H447  1  1.452200  -0.315200  0.284500  1
  H  H448  1  1.232800  -0.407400  0.212700  1
  H  H449  1  1.194100  -0.366800  0.167900  1
  H  H450  1  1.134700  -0.361400  0.211200  1
  H  H451  1  1.207500  -0.123800  0.195400  1
  H  H452  1  1.119000  -0.186300  0.201600  1
  H  H453  1  1.176800  -0.194600  0.157800  1
  H  H454  1  1.379900  -0.115300  0.223000  1
  H  H455  1  1.436700  -0.143900  0.265200  1
  H  H456  1  1.406600  -0.037200  0.258100  1
  H  H457  1  1.257500  -0.110400  0.342600  1
  H  H458  1  1.332500  -0.034300  0.330600  1
  H  H459  1  1.360800  -0.140900  0.339400  1
  H  H460  1  1.056200  -0.066200  0.335100  1
  H  H461  1  1.035400  -0.415300  0.320400  1
  H  H462  1  1.001600  0.072300  0.361900  1
  H  H463  1  0.808300  -0.067600  0.427800  1
  H  H464  1  0.793000  -0.416900  0.417500  1
  H  H465  1  0.970100  -0.554500  0.341200  1
  H  H466  1  0.877700  0.069800  0.410400  1
  H  H467  1  0.848000  -0.554200  0.390800  1
  H  H468  1  0.548900  -0.274300  0.555500  1
  H  H469  1  0.535500  -0.095800  0.455400  1
  H  H470  1  0.671600  -0.041300  0.506100  1
  H  H471  1  0.700700  -0.272000  0.579800  1
  H  H472  1  0.722600  -0.357700  0.547800  1
  H  H473  1  0.654100  -0.371800  0.587400  1
  H  H474  1  0.507500  -0.365900  0.494800  1
  H  H475  1  0.537500  -0.429400  0.535200  1
  H  H476  1  0.604700  -0.414000  0.495200  1
  H  H477  1  0.557700  -0.223200  0.406800  1
  H  H478  1  0.455200  -0.189000  0.407700  1
  H  H479  1  0.484000  -0.282400  0.432900  1
  H  H480  1  0.450800  -0.116600  0.519500  1
  H  H481  1  0.419600  -0.217500  0.502500  1
  H  H482  1  0.389900  -0.125000  0.476700  1
  H  H483  1  0.560700  -0.058900  0.560200  1
  H  H484  1  0.648400  -0.007200  0.578600  1
  H  H485  1  0.630900  -0.115300  0.589700  1
  H  H486  1  0.809400  -0.122400  0.510300  1
  H  H487  1  0.785100  -0.155900  0.558600  1
  H  H488  1  0.800300  -0.046900  0.548600  1
  H  H489  1  1.281100  0.898900  -0.218000  1
  H  H490  1  1.297000  0.760300  -0.304100  1
  H  H491  1  1.256200  0.576500  -0.232500  1
  H  H492  1  1.249600  0.851900  -0.150400  1
  H  H493  1  1.350300  0.814000  -0.145500  1
  H  H494  1  1.332400  0.923200  -0.153600  1
  H  H495  1  1.404900  0.852200  -0.259000  1
  H  H496  1  1.429700  0.924300  -0.220900  1
  H  H497  1  1.452200  0.815200  -0.215500  1
  H  H498  1  1.232800  0.907400  -0.287300  1
  H  H499  1  1.194100  0.866800  -0.332100  1
  H  H500  1  1.134700  0.861400  -0.288800  1
  H  H501  1  1.207500  0.623800  -0.304600  1
  H  H502  1  1.119000  0.686300  -0.298400  1
  H  H503  1  1.176800  0.694600  -0.342200  1
  H  H504  1  1.379900  0.615300  -0.277000  1
  H  H505  1  1.436700  0.643900  -0.234800  1
  H  H506  1  1.406600  0.537200  -0.241900  1
  H  H507  1  1.257500  0.610400  -0.157400  1
  H  H508  1  1.332500  0.534300  -0.169400  1
  H  H509  1  1.360800  0.640900  -0.160600  1
  H  H510  1  1.056200  0.566200  -0.164900  1
  H  H511  1  1.035400  0.915300  -0.179600  1
  H  H512  1  1.001600  0.427700  -0.138100  1
  H  H513  1  0.808300  0.567600  -0.072200  1
  H  H514  1  0.793000  0.916900  -0.082500  1
  H  H515  1  0.970100  1.054500  -0.158800  1
  H  H516  1  0.877700  0.430200  -0.089600  1
  H  H517  1  0.848000  1.054200  -0.109200  1
  H  H518  1  0.548900  0.774300  0.055500  1
  H  H519  1  0.535500  0.595800  -0.044600  1
  H  H520  1  0.671600  0.541300  0.006100  1
  H  H521  1  0.700700  0.772000  0.079800  1
  H  H522  1  0.722600  0.857700  0.047800  1
  H  H523  1  0.654100  0.871800  0.087400  1
  H  H524  1  0.507500  0.865900  -0.005200  1
  H  H525  1  0.537500  0.929400  0.035200  1
  H  H526  1  0.604700  0.914000  -0.004800  1
  H  H527  1  0.557700  0.723200  -0.093200  1
  H  H528  1  0.455200  0.689000  -0.092300  1
  H  H529  1  0.484000  0.782400  -0.067100  1
  H  H530  1  0.450800  0.616600  0.019500  1
  H  H531  1  0.419600  0.717500  0.002500  1
  H  H532  1  0.389900  0.625000  -0.023300  1
  H  H533  1  0.560700  0.558900  0.060200  1
  H  H534  1  0.648400  0.507200  0.078600  1
  H  H535  1  0.630900  0.615300  0.089700  1
  H  H536  1  0.809400  0.622400  0.010300  1
  H  H537  1  0.785100  0.655900  0.058600  1
  H  H538  1  0.800300  0.546900  0.048600  1
  H  H539  1  0.218900  0.101100  0.282000  1
  H  H540  1  0.203000  0.239700  0.195900  1
  H  H541  1  0.243800  0.423500  0.267500  1
  H  H542  1  0.250400  0.148100  0.349600  1
  H  H543  1  0.149700  0.186000  0.354500  1
  H  H544  1  0.167600  0.076800  0.346400  1
  H  H545  1  0.095100  0.147800  0.241000  1
  H  H546  1  0.070300  0.075700  0.279100  1
  H  H547  1  0.047800  0.184800  0.284500  1
  H  H548  1  0.267200  0.092600  0.212700  1
  H  H549  1  0.305900  0.133200  0.167900  1
  H  H550  1  0.365300  0.138600  0.211200  1
  H  H551  1  0.292500  0.376200  0.195400  1
  H  H552  1  0.381000  0.313700  0.201600  1
  H  H553  1  0.323200  0.305400  0.157800  1
  H  H554  1  0.120100  0.384700  0.223000  1
  H  H555  1  0.063300  0.356100  0.265200  1
  H  H556  1  0.093400  0.462800  0.258100  1
  H  H557  1  0.242500  0.389600  0.342600  1
  H  H558  1  0.167500  0.465700  0.330600  1
  H  H559  1  0.139200  0.359100  0.339400  1
  H  H560  1  0.443800  0.433800  0.335100  1
  H  H561  1  0.464600  0.084700  0.320400  1
  H  H562  1  0.498400  0.572300  0.361900  1
  H  H563  1  0.691700  0.432400  0.427800  1
  H  H564  1  0.707000  0.083100  0.417500  1
  H  H565  1  0.529900  -0.054500  0.341200  1
  H  H566  1  0.622300  0.569800  0.410400  1
  H  H567  1  0.652000  -0.054200  0.390800  1
  H  H568  1  0.951100  0.225700  0.555500  1
  H  H569  1  0.964500  0.404200  0.455400  1
  H  H570  1  0.828400  0.458700  0.506100  1
  H  H571  1  0.799300  0.228000  0.579800  1
  H  H572  1  0.777400  0.142300  0.547800  1
  H  H573  1  0.845900  0.128200  0.587400  1
  H  H574  1  0.992500  0.134100  0.494800  1
  H  H575  1  0.962500  0.070600  0.535200  1
  H  H576  1  0.895300  0.086000  0.495200  1
  H  H577  1  0.942300  0.276800  0.406800  1
  H  H578  1  1.044800  0.311000  0.407700  1
  H  H579  1  1.016000  0.217600  0.432900  1
  H  H580  1  1.049200  0.383400  0.519500  1
  H  H581  1  1.080400  0.282500  0.502500  1
  H  H582  1  1.110100  0.375000  0.476700  1
  H  H583  1  0.939300  0.441100  0.560200  1
  H  H584  1  0.851600  0.492800  0.578600  1
  H  H585  1  0.869100  0.384700  0.589700  1
  H  H586  1  0.690600  0.377600  0.510300  1
  H  H587  1  0.714900  0.344100  0.558600  1
  H  H588  1  0.699700  0.453100  0.548600  1
  H  H589  1  1.781100  -0.398900  0.218000  1
  H  H590  1  1.797000  -0.260300  0.304100  1
  H  H591  1  1.756200  -0.076500  0.232500  1
  H  H592  1  1.749600  -0.351900  0.150400  1
  H  H593  1  1.850300  -0.314000  0.145500  1
  H  H594  1  1.832400  -0.423200  0.153600  1
  H  H595  1  1.904900  -0.352200  0.259000  1
  H  H596  1  1.929700  -0.424300  0.220900  1
  H  H597  1  1.952200  -0.315200  0.215500  1
  H  H598  1  1.732800  -0.407400  0.287300  1
  H  H599  1  1.694100  -0.366800  0.332100  1
  H  H600  1  1.634700  -0.361400  0.288800  1
  H  H601  1  1.707500  -0.123800  0.304600  1
  H  H602  1  1.619000  -0.186300  0.298400  1
  H  H603  1  1.676800  -0.194600  0.342200  1
  H  H604  1  1.879900  -0.115300  0.277000  1
  H  H605  1  1.936700  -0.143900  0.234800  1
  H  H606  1  1.906600  -0.037200  0.241900  1
  H  H607  1  1.757500  -0.110400  0.157400  1
  H  H608  1  1.832500  -0.034300  0.169400  1
  H  H609  1  1.860800  -0.140900  0.160600  1
  H  H610  1  1.556200  -0.066200  0.164900  1
  H  H611  1  1.535400  -0.415300  0.179600  1
  H  H612  1  1.501600  0.072300  0.138100  1
  H  H613  1  1.308300  -0.067600  0.072200  1
  H  H614  1  1.293000  -0.416900  0.082500  1
  H  H615  1  1.470100  -0.554500  0.158800  1
  H  H616  1  1.377700  0.069800  0.089600  1
  H  H617  1  1.348000  -0.554200  0.109200  1
  H  H618  1  1.048900  -0.274300  -0.055500  1
  H  H619  1  1.035500  -0.095800  0.044600  1
  H  H620  1  1.171600  -0.041300  -0.006100  1
  H  H621  1  1.200700  -0.272000  -0.079800  1
  H  H622  1  1.222600  -0.357700  -0.047800  1
  H  H623  1  1.154100  -0.371800  -0.087400  1
  H  H624  1  1.007500  -0.365900  0.005200  1
  H  H625  1  1.037500  -0.429400  -0.035200  1
  H  H626  1  1.104700  -0.414000  0.004800  1
  H  H627  1  1.057700  -0.223200  0.093200  1
  H  H628  1  0.955200  -0.189000  0.092300  1
  H  H629  1  0.984000  -0.282400  0.067100  1
  H  H630  1  0.950800  -0.116600  -0.019500  1
  H  H631  1  0.919600  -0.217500  -0.002500  1
  H  H632  1  0.889900  -0.125000  0.023300  1
  H  H633  1  1.060700  -0.058900  -0.060200  1
  H  H634  1  1.148400  -0.007200  -0.078600  1
  H  H635  1  1.130900  -0.115300  -0.089700  1
  H  H636  1  1.309400  -0.122400  -0.010300  1
  H  H637  1  1.285100  -0.155900  -0.058600  1
  H  H638  1  1.300300  -0.046900  -0.048600  1
  H  H639  1  0.718900  0.398900  -0.282000  1
  H  H640  1  0.703000  0.260300  -0.195900  1
  H  H641  1  0.743800  0.076500  -0.267500  1
  H  H642  1  0.750400  0.351900  -0.349600  1
  H  H643  1  0.649700  0.314000  -0.354500  1
  H  H644  1  0.667600  0.423200  -0.346400  1
  H  H645  1  0.595100  0.352200  -0.241000  1
  H  H646  1  0.570300  0.424300  -0.279100  1
  H  H647  1  0.547800  0.315200  -0.284500  1
  H  H648  1  0.767200  0.407400  -0.212700  1
  H  H649  1  0.805900  0.366800  -0.167900  1
  H  H650  1  0.865300  0.361400  -0.211200  1
  H  H651  1  0.792500  0.123800  -0.195400  1
  H  H652  1  0.881000  0.186300  -0.201600  1
  H  H653  1  0.823200  0.194600  -0.157800  1
  H  H654  1  0.620100  0.115300  -0.223000  1
  H  H655  1  0.563300  0.143900  -0.265200  1
  H  H656  1  0.593400  0.037200  -0.258100  1
  H  H657  1  0.742500  0.110400  -0.342600  1
  H  H658  1  0.667500  0.034300  -0.330600  1
  H  H659  1  0.639200  0.140900  -0.339400  1
  H  H660  1  0.943800  0.066200  -0.335100  1
  H  H661  1  0.964600  0.415300  -0.320400  1
  H  H662  1  0.998400  -0.072300  -0.361900  1
  H  H663  1  1.191700  0.067600  -0.427800  1
  H  H664  1  1.207000  0.416900  -0.417500  1
  H  H665  1  1.029900  0.554500  -0.341200  1
  H  H666  1  1.122300  -0.069800  -0.410400  1
  H  H667  1  1.152000  0.554200  -0.390800  1
  H  H668  1  1.451100  0.274300  -0.555500  1
  H  H669  1  1.464500  0.095800  -0.455400  1
  H  H670  1  1.328400  0.041300  -0.506100  1
  H  H671  1  1.299300  0.272000  -0.579800  1
  H  H672  1  1.277400  0.357700  -0.547800  1
  H  H673  1  1.345900  0.371800  -0.587400  1
  H  H674  1  1.492500  0.365900  -0.494800  1
  H  H675  1  1.462500  0.429400  -0.535200  1
  H  H676  1  1.395300  0.414000  -0.495200  1
  H  H677  1  1.442300  0.223200  -0.406800  1
  H  H678  1  1.544800  0.189000  -0.407700  1
  H  H679  1  1.516000  0.282400  -0.432900  1
  H  H680  1  1.549200  0.116600  -0.519500  1
  H  H681  1  1.580400  0.217500  -0.502500  1
  H  H682  1  1.610100  0.125000  -0.476700  1
  H  H683  1  1.439300  0.058900  -0.560200  1
  H  H684  1  1.351600  0.007200  -0.578600  1
  H  H685  1  1.369100  0.115300  -0.589700  1
  H  H686  1  1.190600  0.122400  -0.510300  1
  H  H687  1  1.214900  0.155900  -0.558600  1
  H  H688  1  1.199700  0.046900  -0.548600  1
  Si  Si689  1  0.746130  0.257430  0.230570  1.0
  Si  Si690  1  1.375400  0.300380  0.002210  1
  Si  Si691  1  1.753870  0.742570  -0.269430  1.0
  Si  Si692  1  1.124600  0.699620  -0.497790  1
  Si  Si693  1  0.246130  0.242570  -0.230570  1.0
  Si  Si694  1  0.875400  0.199620  -0.002210  1
  Si  Si695  1  1.253870  -0.242570  0.269430  1.0
  Si  Si696  1  0.624600  -0.199620  0.497790  1
  Si  Si697  1  1.253870  0.742570  -0.230570  1.0
  Si  Si698  1  0.624600  0.699620  -0.002210  1
  Si  Si699  1  0.246130  0.257430  0.269430  1.0
  Si  Si700  1  0.875400  0.300380  0.497790  1
  Si  Si701  1  1.753870  -0.242570  0.230570  1.0
  Si  Si702  1  1.124600  -0.199620  0.002210  1
  Si  Si703  1  0.746130  0.242570  -0.269430  1.0
  Si  Si704  1  1.375400  0.199620  -0.497790  1
