# generated using pymatgen
data_SiH25C20Se
_symmetry_space_group_name_H-M   'P 1'
_cell_length_a   8.87380000
_cell_length_b   10.41360000
_cell_length_c   11.17370000
_cell_angle_alpha   67.97700000
_cell_angle_beta   82.58800000
_cell_angle_gamma   77.53000000
_symmetry_Int_Tables_number   1
_chemical_formula_structural   SiH25C20Se
_chemical_formula_sum   'Si2 H50 C40 Se2'
_cell_volume   933.30243478
_cell_formula_units_Z   2
loop_
 _symmetry_equiv_pos_site_id
 _symmetry_equiv_pos_as_xyz
  1  'x, y, z'
loop_
 _atom_site_type_symbol
 _atom_site_label
 _atom_site_symmetry_multiplicity
 _atom_site_fract_x
 _atom_site_fract_y
 _atom_site_fract_z
 _atom_site_occupancy
  C  C1  1  0.024700  0.744700  0.796500  1
  C  C2  1  -0.066500  0.470100  0.833100  1
  C  C3  1  -0.040800  0.703300  0.557300  1
  C  C4  1  0.254300  0.529600  0.710200  1
  C  C5  1  0.014400  0.826400  0.851900  1
  C  C6  1  -0.217300  0.522800  0.898700  1
  C  C7  1  -0.095400  0.371600  0.768600  1
  C  C8  1  -0.211200  0.769900  0.562500  1
  C  C9  1  0.053700  0.813300  0.468900  1
  C  C10  1  0.291000  0.461100  0.607500  1
  C  C11  1  0.368100  0.627300  0.694100  1
  C  C12  1  0.005800  0.916100  0.924300  1
  C  C13  1  0.129100  0.988000  0.911400  1
  C  C14  1  -0.122600  0.927000  1.011000  1
  C  C15  1  0.258000  0.977800  0.824500  1
  C  C16  1  0.122600  1.073000  0.989000  1
  C  C17  1  -0.129100  1.012000  1.088600  1
  C  C18  1  -0.246600  0.855800  1.023500  1
  C  C19  1  0.376000  1.047600  0.815200  1
  C  C20  1  -0.005800  1.083900  1.075700  1
  C  C21  1  0.246600  1.144200  0.976500  1
  C  C22  1  -0.258000  1.022200  1.175500  1
  C  C23  1  -0.371500  0.868300  1.107500  1
  C  C24  1  0.371500  1.131700  0.892500  1
  C  C25  1  -0.014400  1.173600  1.148100  1
  C  C26  1  -0.376000  0.952400  1.184800  1
  C  C27  1  -0.505200  0.804800  1.128600  1
  C  C28  1  0.505200  1.195200  0.871400  1
  C  C29  1  0.614000  1.165900  0.782200  1
  C  C30  1  -0.024700  1.255300  1.203500  1
  C  C31  1  -0.614000  0.834100  1.217800  1
  C  C32  1  0.066500  1.529900  1.166900  1
  C  C33  1  0.040800  1.296700  1.442700  1
  C  C34  1  -0.254300  1.470400  1.289800  1
  C  C35  1  0.217300  1.477200  1.101300  1
  C  C36  1  0.095400  1.628400  1.231400  1
  C  C37  1  0.211200  1.230100  1.437500  1
  C  C38  1  -0.053700  1.186700  1.531100  1
  C  C39  1  -0.291000  1.538900  1.392500  1
  C  C40  1  -0.368100  1.372700  1.305900  1
  H  H41  1  0.003400  0.410100  0.904600  1
  H  H42  1  -0.032400  0.630600  0.517300  1
  H  H43  1  0.275000  0.451000  0.795000  1
  H  H44  1  -0.290100  0.583900  0.832600  1
  H  H45  1  -0.195300  0.575900  0.948500  1
  H  H46  1  -0.262800  0.442100  0.956700  1
  H  H47  1  -0.139400  0.293400  0.833200  1
  H  H48  1  0.002500  0.334300  0.731400  1
  H  H49  1  -0.167800  0.424100  0.699900  1
  H  H50  1  -0.225000  0.837100  0.607000  1
  H  H51  1  -0.272000  0.696100  0.609600  1
  H  H52  1  -0.246100  0.819100  0.474400  1
  H  H53  1  0.008400  0.859600  0.384300  1
  H  H54  1  0.160400  0.767000  0.458300  1
  H  H55  1  0.052800  0.883800  0.507600  1
  H  H56  1  0.273200  0.533800  0.521700  1
  H  H57  1  0.224100  0.392100  0.624200  1
  H  H58  1  0.399400  0.413700  0.610900  1
  H  H59  1  0.473700  0.572900  0.702700  1
  H  H60  1  0.343800  0.669500  0.761000  1
  H  H61  1  0.359800  0.701900  0.608500  1
  H  H62  1  0.262700  0.922700  0.772500  1
  H  H63  1  -0.243200  0.799000  0.973400  1
  H  H64  1  0.243200  1.201000  1.026600  1
  H  H65  1  -0.262700  1.077300  1.227500  1
  H  H66  1  -0.517400  0.746500  1.083700  1
  H  H67  1  0.517400  1.253500  0.916300  1
  H  H68  1  0.708500  1.200400  0.760700  1
  H  H69  1  -0.708500  0.799600  1.239300  1
  H  H70  1  -0.003400  1.589900  1.095400  1
  H  H71  1  0.032400  1.369400  1.482700  1
  H  H72  1  -0.275000  1.549000  1.205000  1
  H  H73  1  0.290100  1.416100  1.167400  1
  H  H74  1  0.195300  1.424100  1.051500  1
  H  H75  1  0.262800  1.557900  1.043300  1
  H  H76  1  0.139400  1.706600  1.166800  1
  H  H77  1  -0.002500  1.665700  1.268600  1
  H  H78  1  0.167800  1.575900  1.300100  1
  H  H79  1  0.225000  1.162900  1.393000  1
  H  H80  1  0.272000  1.303900  1.390400  1
  H  H81  1  0.246100  1.180900  1.525600  1
  H  H82  1  -0.008400  1.140400  1.615700  1
  H  H83  1  -0.160400  1.233000  1.541700  1
  H  H84  1  -0.052800  1.116200  1.492400  1
  H  H85  1  -0.273200  1.466200  1.478300  1
  H  H86  1  -0.224100  1.607900  1.375800  1
  H  H87  1  -0.399400  1.586300  1.389100  1
  H  H88  1  -0.473700  1.427100  1.297300  1
  H  H89  1  -0.343800  1.330500  1.239000  1
  H  H90  1  -0.359800  1.298100  1.391500  1
  Se  Se91  1  0.557850  1.050020  0.706130  1
  Se  Se92  1  -0.557850  0.949980  1.293870  1
  Si  Si93  1  0.042110  0.611020  0.721340  1.0
  Si  Si94  1  -0.042110  1.388980  1.278660  1
