# generated using pymatgen
data_SiH33C27S
_symmetry_space_group_name_H-M   'P 1'
_cell_length_a   8.50980000
_cell_length_b   11.74800000
_cell_length_c   12.98960000
_cell_angle_alpha   76.83140000
_cell_angle_beta   86.72500000
_cell_angle_gamma   68.94970000
_symmetry_Int_Tables_number   1
_chemical_formula_structural   SiH33C27S
_chemical_formula_sum   'Si2 H66 C54 S2'
_cell_volume   1179.64320855
_cell_formula_units_Z   2
loop_
 _symmetry_equiv_pos_site_id
 _symmetry_equiv_pos_as_xyz
  1  'x, y, z'
loop_
 _atom_site_type_symbol
 _atom_site_label
 _atom_site_symmetry_multiplicity
 _atom_site_fract_x
 _atom_site_fract_y
 _atom_site_fract_z
 _atom_site_occupancy
  C  C1  1  0.329600  0.200200  0.226200  1
  C  C2  1  0.068100  0.452700  0.220000  1
  C  C3  1  0.114600  0.218100  0.415600  1
  C  C4  1  0.398000  0.343600  0.372500  1
  C  C5  1  0.384200  0.133000  0.164100  1
  C  C6  1  0.153500  0.487200  0.115100  1
  C  C7  1  -0.085600  0.427400  0.189100  1
  C  C8  1  0.002600  0.568100  0.270200  1
  C  C9  1  0.032600  0.147800  0.362200  1
  C  C10  1  -0.021900  0.303600  0.475400  1
  C  C11  1  0.243600  0.116400  0.497000  1
  C  C12  1  0.338900  0.399900  0.470700  1
  C  C13  1  0.554200  0.223800  0.405000  1
  C  C14  1  0.460000  0.436400  0.292500  1
  C  C15  1  0.442800  0.062600  0.084000  1
  C  C16  1  0.617300  -0.005300  0.077600  1
  C  C17  1  0.324200  0.067500  0.009400  1
  C  C18  1  0.735800  -0.016400  0.154200  1
  C  C19  1  0.675800  -0.067500  -0.009400  1
  C  C20  1  0.382700  0.005300  -0.077600  1
  C  C21  1  0.151400  0.129800  0.016800  1
  C  C22  1  0.906600  -0.080900  0.147200  1
  C  C23  1  0.557200  -0.062600  -0.084000  1
  C  C24  1  0.848600  -0.129800  -0.016800  1
  C  C25  1  0.264200  0.016400  -0.154200  1
  C  C26  1  0.033200  0.136800  -0.056900  1
  C  C27  1  1.026500  -0.093800  0.225100  1
  C  C28  1  0.966800  -0.136800  0.056900  1
  C  C29  1  0.615800  -0.133000  -0.164100  1
  C  C30  1  0.093400  0.080900  -0.147200  1
  C  C31  1  -0.141800  0.197100  -0.046900  1
  C  C32  1  1.193800  -0.154500  0.213200  1
  C  C33  1  1.141800  -0.197100  0.046900  1
  C  C34  1  0.670400  -0.200200  -0.226200  1
  C  C35  1  -0.026500  0.093800  -0.225100  1
  C  C36  1  -0.253900  0.206000  -0.122300  1
  C  C37  1  1.253900  -0.206000  0.122300  1
  C  C38  1  -0.193800  0.154500  -0.213200  1
  C  C39  1  -0.433800  0.265000  -0.124000  1
  C  C40  1  1.433800  -0.265000  0.124000  1
  C  C41  1  1.504100  -0.256200  0.214200  1
  C  C42  1  0.931900  -0.452700  -0.220000  1
  C  C43  1  0.885400  -0.218100  -0.415600  1
  C  C44  1  0.602000  -0.343600  -0.372500  1
  C  C45  1  -0.504100  0.256200  -0.214200  1
  C  C46  1  0.846500  -0.487200  -0.115100  1
  C  C47  1  1.085600  -0.427400  -0.189100  1
  C  C48  1  0.997400  -0.568100  -0.270200  1
  C  C49  1  0.967400  -0.147800  -0.362200  1
  C  C50  1  1.021900  -0.303600  -0.475400  1
  C  C51  1  0.756400  -0.116400  -0.497000  1
  C  C52  1  0.661100  -0.399900  -0.470700  1
  C  C53  1  0.445800  -0.223800  -0.405000  1
  C  C54  1  0.540000  -0.436400  -0.292500  1
  H  H55  1  0.072600  0.559600  0.068200  1
  H  H56  1  0.191300  0.416100  0.080800  1
  H  H57  1  0.250600  0.507700  0.129900  1
  H  H58  1  -0.150000  0.411600  0.252200  1
  H  H59  1  -0.047900  0.354100  0.157400  1
  H  H60  1  -0.157100  0.500400  0.137700  1
  H  H61  1  -0.076000  0.638700  0.220400  1
  H  H62  1  0.097800  0.590100  0.286300  1
  H  H63  1  -0.055300  0.548600  0.335500  1
  H  H64  1  -0.016000  0.098000  0.416200  1
  H  H65  1  0.118200  0.092500  0.324200  1
  H  H66  1  -0.056400  0.208300  0.312100  1
  H  H67  1  -0.066700  0.252300  0.530700  1
  H  H68  1  -0.113300  0.361600  0.425800  1
  H  H69  1  0.027400  0.351100  0.507700  1
  H  H70  1  0.288400  0.156000  0.541000  1
  H  H71  1  0.336000  0.065100  0.460000  1
  H  H72  1  0.188700  0.063400  0.542000  1
  H  H73  1  0.432000  0.414900  0.499400  1
  H  H74  1  0.303300  0.341300  0.524500  1
  H  H75  1  0.244100  0.479200  0.450400  1
  H  H76  1  0.598200  0.190100  0.342500  1
  H  H77  1  0.522800  0.161500  0.457200  1
  H  H78  1  0.641000  0.243600  0.435900  1
  H  H79  1  0.368800  0.518000  0.275100  1
  H  H80  1  0.494500  0.404900  0.228000  1
  H  H81  1  0.556200  0.445100  0.323600  1
  H  H82  1  0.697200  0.021500  0.212700  1
  H  H83  1  0.112600  0.169000  0.074500  1
  H  H84  1  0.887400  -0.169000  -0.074500  1
  H  H85  1  0.302800  -0.021500  -0.212700  1
  H  H86  1  0.989700  -0.059900  0.285800  1
  H  H87  1  -0.182000  0.231900  0.013000  1
  H  H88  1  1.182000  -0.231900  -0.013000  1
  H  H89  1  0.010300  0.059900  -0.285800  1
  H  H90  1  -0.496200  0.303600  -0.070500  1
  H  H91  1  1.496200  -0.303600  0.070500  1
  H  H92  1  1.621900  -0.289800  0.229300  1
  H  H93  1  -0.621900  0.289800  -0.229300  1
  H  H94  1  0.927400  -0.559600  -0.068200  1
  H  H95  1  0.808700  -0.416100  -0.080800  1
  H  H96  1  0.749400  -0.507700  -0.129900  1
  H  H97  1  1.150000  -0.411600  -0.252200  1
  H  H98  1  1.047900  -0.354100  -0.157400  1
  H  H99  1  1.157100  -0.500400  -0.137700  1
  H  H100  1  1.076000  -0.638700  -0.220400  1
  H  H101  1  0.902200  -0.590100  -0.286300  1
  H  H102  1  1.055300  -0.548600  -0.335500  1
  H  H103  1  1.016000  -0.098000  -0.416200  1
  H  H104  1  0.881800  -0.092500  -0.324200  1
  H  H105  1  1.056400  -0.208300  -0.312100  1
  H  H106  1  1.066700  -0.252300  -0.530700  1
  H  H107  1  1.113300  -0.361600  -0.425800  1
  H  H108  1  0.972600  -0.351100  -0.507700  1
  H  H109  1  0.711600  -0.156000  -0.541000  1
  H  H110  1  0.664000  -0.065100  -0.460000  1
  H  H111  1  0.811300  -0.063400  -0.542000  1
  H  H112  1  0.568000  -0.414900  -0.499400  1
  H  H113  1  0.696700  -0.341300  -0.524500  1
  H  H114  1  0.755900  -0.479200  -0.450400  1
  H  H115  1  0.401800  -0.190100  -0.342500  1
  H  H116  1  0.477200  -0.161500  -0.457200  1
  H  H117  1  0.359000  -0.243600  -0.435900  1
  H  H118  1  0.631200  -0.518000  -0.275100  1
  H  H119  1  0.505500  -0.404900  -0.228000  1
  H  H120  1  0.443800  -0.445100  -0.323600  1
  S  S121  1  1.358600  -0.179100  0.297500  1
  S  S122  1  -0.358600  0.179100  -0.297500  1
  Si  Si123  1  0.223900  0.308290  0.312490  1.0
  Si  Si124  1  0.776100  -0.308290  -0.312490  1
