# generated using pymatgen
data_SiH45C31
_symmetry_space_group_name_H-M   'P 1'
_cell_length_a   5.28280000
_cell_length_b   22.80600000
_cell_length_c   23.49100000
_cell_angle_alpha   90.00000000
_cell_angle_beta   92.92500000
_cell_angle_gamma   90.00000000
_symmetry_Int_Tables_number   1
_chemical_formula_structural   SiH45C31
_chemical_formula_sum   'Si4 H180 C124'
_cell_volume   2826.49759680
_cell_formula_units_Z   4
loop_
 _symmetry_equiv_pos_site_id
 _symmetry_equiv_pos_as_xyz
  1  'x, y, z'
loop_
 _atom_site_type_symbol
 _atom_site_label
 _atom_site_symmetry_multiplicity
 _atom_site_fract_x
 _atom_site_fract_y
 _atom_site_fract_z
 _atom_site_occupancy
  C  C1  1  0.941300  0.621490  0.491880  1
  C  C2  1  0.547900  0.686200  0.419600  1
  C  C3  1  0.557900  0.691800  0.553920  1
  C  C4  1  0.959800  0.752990  0.488560  1
  C  C5  1  1.093300  0.582640  0.493550  1
  C  C6  1  0.699100  0.669060  0.368420  1
  C  C7  1  0.714300  0.673920  0.608830  1
  C  C8  1  0.821100  0.811600  0.480800  1
  C  C9  1  1.292800  0.539430  0.496320  1
  C  C10  1  0.557300  0.678200  0.311300  1
  C  C11  1  0.583400  0.687040  0.663220  1
  C  C12  1  1.007000  0.862900  0.482600  1
  C  C13  1  1.395800  0.522050  0.550690  1
  C  C14  1  1.391700  0.518270  0.446010  1
  C  C15  1  0.712000  0.656400  0.262100  1
  C  C16  1  0.731300  0.666360  0.716210  1
  C  C17  1  0.867000  0.922200  0.477600  1
  C  C18  1  1.295600  0.541050  0.602020  1
  C  C19  1  1.608300  0.481730  0.553990  1
  C  C20  1  1.604200  0.477950  0.449310  1
  C  C21  1  1.285700  0.533980  0.391760  1
  C  C22  1  0.583000  0.670600  0.204400  1
  C  C23  1  0.615700  0.682400  0.771800  1
  C  C24  1  0.758000  0.934600  0.418600  1
  C  C25  1  1.396900  0.524210  0.654700  1
  C  C26  1  1.707200  0.460570  0.503680  1
  C  C27  1  1.714300  0.466020  0.608240  1
  C  C28  1  1.704400  0.458950  0.397980  1
  C  C29  1  1.385700  0.513560  0.342090  1
  C  C30  1  0.730000  0.646600  0.154500  1
  C  C31  1  0.769400  0.659500  0.823800  1
  C  C32  1  0.629000  0.995200  0.413000  1
  C  C33  1  1.293000  0.543100  0.706660  1
  C  C34  1  1.614300  0.486440  0.657910  1
  C  C35  1  1.906700  0.417360  0.506450  1
  C  C36  1  1.603100  0.475790  0.345300  1
  C  C37  1  1.280300  0.529240  0.286650  1
  C  C38  1  1.398100  0.526900  0.757500  1
  C  C39  1  1.719700  0.470760  0.713350  1
  C  C40  1  2.058700  0.378510  0.508120  1
  C  C41  1  1.707000  0.456900  0.293340  1
  C  C42  1  1.382700  0.510000  0.238600  1
  C  C43  1  1.617300  0.490000  0.761400  1
  C  C44  1  1.601900  0.473100  0.242500  1
  C  C45  1  2.452100  0.313800  0.580400  1
  C  C46  1  2.442100  0.308200  0.446080  1
  C  C47  1  2.040200  0.247010  0.511440  1
  C  C48  1  2.300900  0.330940  0.631580  1
  C  C49  1  2.285700  0.326080  0.391170  1
  C  C50  1  2.178900  0.188400  0.519200  1
  C  C51  1  2.442700  0.321800  0.688700  1
  C  C52  1  2.416600  0.312960  0.336780  1
  C  C53  1  1.993000  0.137100  0.517400  1
  C  C54  1  2.288000  0.343600  0.737900  1
  C  C55  1  2.268700  0.333640  0.283790  1
  C  C56  1  2.133000  0.077800  0.522400  1
  C  C57  1  2.417000  0.329400  0.795600  1
  C  C58  1  2.384300  0.317600  0.228200  1
  C  C59  1  2.242000  0.065400  0.581400  1
  C  C60  1  2.270000  0.353400  0.845500  1
  C  C61  1  2.230600  0.340500  0.176200  1
  C  C62  1  2.371000  0.004800  0.587000  1
  C  C63  1  1.558700  0.121490  0.008120  1
  C  C64  1  1.952100  0.186200  0.080400  1
  C  C65  1  1.942100  0.191800  -0.053920  1
  C  C66  1  1.540200  0.252990  0.011440  1
  C  C67  1  1.406700  0.082640  0.006450  1
  C  C68  1  1.800900  0.169060  0.131580  1
  C  C69  1  1.785700  0.173920  -0.108830  1
  C  C70  1  1.678900  0.311600  0.019200  1
  C  C71  1  1.207200  0.039430  0.003680  1
  C  C72  1  1.942700  0.178200  0.188700  1
  C  C73  1  1.916600  0.187040  -0.163220  1
  C  C74  1  1.493000  0.362900  0.017400  1
  C  C75  1  1.104200  0.022050  -0.050690  1
  C  C76  1  1.108300  0.018270  0.053990  1
  C  C77  1  1.788000  0.156400  0.237900  1
  C  C78  1  1.768700  0.166360  -0.216210  1
  C  C79  1  1.633000  0.422200  0.022400  1
  C  C80  1  1.204400  0.041050  -0.102020  1
  C  C81  1  0.891700  -0.018270  -0.053990  1
  C  C82  1  0.895800  -0.022050  0.050690  1
  C  C83  1  1.214300  0.033980  0.108240  1
  C  C84  1  1.917000  0.170600  0.295600  1
  C  C85  1  1.884300  0.182400  -0.271800  1
  C  C86  1  1.742000  0.434600  0.081400  1
  C  C87  1  1.103100  0.024210  -0.154700  1
  C  C88  1  0.792800  -0.039430  -0.003680  1
  C  C89  1  0.785700  -0.033980  -0.108240  1
  C  C90  1  0.795600  -0.041050  0.102020  1
  C  C91  1  1.114300  0.013560  0.157910  1
  C  C92  1  1.770000  0.146600  0.345500  1
  C  C93  1  1.730600  0.159500  -0.323800  1
  C  C94  1  1.871000  0.495200  0.087000  1
  C  C95  1  1.207000  0.043100  -0.206660  1
  C  C96  1  0.885700  -0.013560  -0.157910  1
  C  C97  1  0.593300  -0.082640  -0.006450  1
  C  C98  1  0.896900  -0.024210  0.154700  1
  C  C99  1  1.219700  0.029240  0.213350  1
  C  C100  1  1.101900  0.026900  -0.257500  1
  C  C101  1  0.780300  -0.029240  -0.213350  1
  C  C102  1  0.441300  -0.121490  -0.008120  1
  C  C103  1  0.793000  -0.043100  0.206660  1
  C  C104  1  1.117300  0.010000  0.261400  1
  C  C105  1  0.882700  -0.010000  -0.261400  1
  C  C106  1  0.898100  -0.026900  0.257500  1
  C  C107  1  0.047900  -0.186200  -0.080400  1
  C  C108  1  0.057900  -0.191800  0.053920  1
  C  C109  1  0.459800  -0.252990  -0.011440  1
  C  C110  1  0.199100  -0.169060  -0.131580  1
  C  C111  1  0.214300  -0.173920  0.108830  1
  C  C112  1  0.321100  -0.311600  -0.019200  1
  C  C113  1  0.057300  -0.178200  -0.188700  1
  C  C114  1  0.083400  -0.187040  0.163220  1
  C  C115  1  0.507000  -0.362900  -0.017400  1
  C  C116  1  0.212000  -0.156400  -0.237900  1
  C  C117  1  0.231300  -0.166360  0.216210  1
  C  C118  1  0.367000  -0.422200  -0.022400  1
  C  C119  1  0.083000  -0.170600  -0.295600  1
  C  C120  1  0.115700  -0.182400  0.271800  1
  C  C121  1  0.258000  -0.434600  -0.081400  1
  C  C122  1  0.230000  -0.146600  -0.345500  1
  C  C123  1  0.269400  -0.159500  0.323800  1
  C  C124  1  0.129000  -0.495200  -0.087000  1
  H  H125  1  0.407600  0.657900  0.423200  1
  H  H126  1  0.471800  0.725400  0.412600  1
  H  H127  1  0.494700  0.732300  0.558500  1
  H  H128  1  0.408800  0.665600  0.549100  1
  H  H129  1  1.061700  0.753700  0.525100  1
  H  H130  1  1.078200  0.748300  0.457500  1
  H  H131  1  0.857200  0.692400  0.369200  1
  H  H132  1  0.747300  0.627200  0.372000  1
  H  H133  1  0.750400  0.631400  0.607300  1
  H  H134  1  0.878600  0.694900  0.609800  1
  H  H135  1  0.722600  0.811700  0.443800  1
  H  H136  1  0.700700  0.816400  0.511400  1
  H  H137  1  0.519800  0.720400  0.306000  1
  H  H138  1  0.394000  0.656900  0.310900  1
  H  H139  1  0.556300  0.729900  0.666000  1
  H  H140  1  0.414900  0.667900  0.661400  1
  H  H141  1  1.121800  0.859100  0.450800  1
  H  H142  1  1.110700  0.861700  0.518800  1
  H  H143  1  0.881400  0.674900  0.264800  1
  H  H144  1  0.734700  0.613500  0.265400  1
  H  H145  1  0.904100  0.683100  0.716200  1
  H  H146  1  0.747900  0.623200  0.714400  1
  H  H147  1  0.728300  0.922400  0.504400  1
  H  H148  1  0.986700  0.953900  0.489100  1
  H  H149  1  1.152900  0.566400  0.600200  1
  H  H150  1  1.142400  0.559200  0.389200  1
  H  H151  1  0.567100  0.713700  0.200400  1
  H  H152  1  0.410500  0.653700  0.202400  1
  H  H153  1  0.441900  0.666200  0.771900  1
  H  H154  1  0.603000  0.725600  0.774400  1
  H  H155  1  0.632000  0.903900  0.407800  1
  H  H156  1  0.895100  0.932500  0.391500  1
  H  H157  1  1.857600  0.440800  0.610800  1
  H  H158  1  1.847100  0.433600  0.399800  1
  H  H159  1  0.908200  0.658700  0.159200  1
  H  H160  1  0.656100  0.662200  0.118500  1
  H  H161  1  0.720300  0.603700  0.154100  1
  H  H162  1  0.782600  0.616700  0.821500  1
  H  H163  1  0.684900  0.670300  0.858500  1
  H  H164  1  0.939500  0.676700  0.824900  1
  H  H165  1  0.474800  0.995400  0.434500  1
  H  H166  1  0.583700  1.003100  0.372600  1
  H  H167  1  0.745300  1.025500  0.427800  1
  H  H168  1  1.147100  0.567500  0.705200  1
  H  H169  1  1.134800  0.553700  0.283700  1
  H  H170  1  1.325900  0.540200  0.791400  1
  H  H171  1  1.865200  0.446300  0.716300  1
  H  H172  1  1.852900  0.432500  0.294800  1
  H  H173  1  1.309700  0.521000  0.202400  1
  H  H174  1  1.690300  0.479000  0.797600  1
  H  H175  1  1.674100  0.459800  0.208600  1
  H  H176  1  2.592400  0.342100  0.576800  1
  H  H177  1  2.528200  0.274600  0.587400  1
  H  H178  1  2.505300  0.267700  0.441500  1
  H  H179  1  2.591200  0.334400  0.450900  1
  H  H180  1  1.938300  0.246300  0.474900  1
  H  H181  1  1.921800  0.251700  0.542500  1
  H  H182  1  2.142800  0.307600  0.630800  1
  H  H183  1  2.252700  0.372800  0.628000  1
  H  H184  1  2.249600  0.368600  0.392700  1
  H  H185  1  2.121400  0.305100  0.390200  1
  H  H186  1  2.277400  0.188300  0.556200  1
  H  H187  1  2.299300  0.183600  0.488600  1
  H  H188  1  2.480200  0.279600  0.694000  1
  H  H189  1  2.606000  0.343100  0.689100  1
  H  H190  1  2.443700  0.270100  0.334000  1
  H  H191  1  2.585100  0.332100  0.338600  1
  H  H192  1  1.878200  0.140900  0.549200  1
  H  H193  1  1.889300  0.138300  0.481200  1
  H  H194  1  2.118600  0.325100  0.735200  1
  H  H195  1  2.265300  0.386500  0.734600  1
  H  H196  1  2.095900  0.316900  0.283800  1
  H  H197  1  2.252100  0.376800  0.285600  1
  H  H198  1  2.271700  0.077600  0.495600  1
  H  H199  1  2.013300  0.046100  0.510900  1
  H  H200  1  2.432900  0.286300  0.799600  1
  H  H201  1  2.589500  0.346300  0.797600  1
  H  H202  1  2.558100  0.333800  0.228100  1
  H  H203  1  2.397000  0.274400  0.225600  1
  H  H204  1  2.368000  0.096100  0.592200  1
  H  H205  1  2.104900  0.067500  0.608500  1
  H  H206  1  2.091800  0.341300  0.840800  1
  H  H207  1  2.343900  0.337800  0.881500  1
  H  H208  1  2.279700  0.396300  0.845900  1
  H  H209  1  2.217400  0.383300  0.178500  1
  H  H210  1  2.315100  0.329700  0.141500  1
  H  H211  1  2.060500  0.323300  0.175100  1
  H  H212  1  2.525200  0.004600  0.565500  1
  H  H213  1  2.416300  -0.003100  0.627400  1
  H  H214  1  2.254700  -0.025500  0.572200  1
  H  H215  1  2.092400  0.157900  0.076800  1
  H  H216  1  2.028200  0.225400  0.087400  1
  H  H217  1  2.005300  0.232300  -0.058500  1
  H  H218  1  2.091200  0.165600  -0.049100  1
  H  H219  1  1.438300  0.253700  -0.025100  1
  H  H220  1  1.421800  0.248300  0.042500  1
  H  H221  1  1.642800  0.192400  0.130800  1
  H  H222  1  1.752700  0.127200  0.128000  1
  H  H223  1  1.749600  0.131400  -0.107300  1
  H  H224  1  1.621400  0.194900  -0.109800  1
  H  H225  1  1.777400  0.311700  0.056200  1
  H  H226  1  1.799300  0.316400  -0.011400  1
  H  H227  1  1.980200  0.220400  0.194000  1
  H  H228  1  2.106000  0.156900  0.189100  1
  H  H229  1  1.943700  0.229900  -0.166000  1
  H  H230  1  2.085100  0.167900  -0.161400  1
  H  H231  1  1.378200  0.359100  0.049200  1
  H  H232  1  1.389300  0.361700  -0.018800  1
  H  H233  1  1.618600  0.174900  0.235200  1
  H  H234  1  1.765300  0.113500  0.234600  1
  H  H235  1  1.595900  0.183100  -0.216200  1
  H  H236  1  1.752100  0.123200  -0.214400  1
  H  H237  1  1.771700  0.422400  -0.004400  1
  H  H238  1  1.513300  0.453900  0.010900  1
  H  H239  1  1.347100  0.066400  -0.100200  1
  H  H240  1  1.357600  0.059200  0.110800  1
  H  H241  1  1.932900  0.213700  0.299600  1
  H  H242  1  2.089500  0.153700  0.297600  1
  H  H243  1  2.058100  0.166200  -0.271900  1
  H  H244  1  1.897000  0.225600  -0.274400  1
  H  H245  1  1.868000  0.403900  0.092200  1
  H  H246  1  1.604900  0.432500  0.108500  1
  H  H247  1  0.642400  -0.059200  -0.110800  1
  H  H248  1  0.652900  -0.066400  0.100200  1
  H  H249  1  1.591800  0.158700  0.340800  1
  H  H250  1  1.843900  0.162200  0.381500  1
  H  H251  1  1.779700  0.103700  0.345900  1
  H  H252  1  1.717400  0.116700  -0.321500  1
  H  H253  1  1.815100  0.170300  -0.358500  1
  H  H254  1  1.560500  0.176700  -0.324900  1
  H  H255  1  2.025200  0.495400  0.065500  1
  H  H256  1  1.916300  0.503100  0.127400  1
  H  H257  1  1.754700  0.525500  0.072200  1
  H  H258  1  1.352900  0.067500  -0.205200  1
  H  H259  1  1.365200  0.053700  0.216300  1
  H  H260  1  1.174100  0.040200  -0.291400  1
  H  H261  1  0.634800  -0.053700  -0.216300  1
  H  H262  1  0.647100  -0.067500  0.205200  1
  H  H263  1  1.190300  0.021000  0.297600  1
  H  H264  1  0.809700  -0.021000  -0.297600  1
  H  H265  1  0.825900  -0.040200  0.291400  1
  H  H266  1  -0.092400  -0.157900  -0.076800  1
  H  H267  1  -0.028200  -0.225400  -0.087400  1
  H  H268  1  -0.005300  -0.232300  0.058500  1
  H  H269  1  -0.091200  -0.165600  0.049100  1
  H  H270  1  0.561700  -0.253700  0.025100  1
  H  H271  1  0.578200  -0.248300  -0.042500  1
  H  H272  1  0.357200  -0.192400  -0.130800  1
  H  H273  1  0.247300  -0.127200  -0.128000  1
  H  H274  1  0.250400  -0.131400  0.107300  1
  H  H275  1  0.378600  -0.194900  0.109800  1
  H  H276  1  0.222600  -0.311700  -0.056200  1
  H  H277  1  0.200700  -0.316400  0.011400  1
  H  H278  1  0.019800  -0.220400  -0.194000  1
  H  H279  1  -0.106000  -0.156900  -0.189100  1
  H  H280  1  0.056300  -0.229900  0.166000  1
  H  H281  1  -0.085100  -0.167900  0.161400  1
  H  H282  1  0.621800  -0.359100  -0.049200  1
  H  H283  1  0.610700  -0.361700  0.018800  1
  H  H284  1  0.381400  -0.174900  -0.235200  1
  H  H285  1  0.234700  -0.113500  -0.234600  1
  H  H286  1  0.404100  -0.183100  0.216200  1
  H  H287  1  0.247900  -0.123200  0.214400  1
  H  H288  1  0.228300  -0.422400  0.004400  1
  H  H289  1  0.486700  -0.453900  -0.010900  1
  H  H290  1  0.067100  -0.213700  -0.299600  1
  H  H291  1  -0.089500  -0.153700  -0.297600  1
  H  H292  1  -0.058100  -0.166200  0.271900  1
  H  H293  1  0.103000  -0.225600  0.274400  1
  H  H294  1  0.132000  -0.403900  -0.092200  1
  H  H295  1  0.395100  -0.432500  -0.108500  1
  H  H296  1  0.408200  -0.158700  -0.340800  1
  H  H297  1  0.156100  -0.162200  -0.381500  1
  H  H298  1  0.220300  -0.103700  -0.345900  1
  H  H299  1  0.282600  -0.116700  0.321500  1
  H  H300  1  0.184900  -0.170300  0.358500  1
  H  H301  1  0.439500  -0.176700  0.324900  1
  H  H302  1  -0.025200  -0.495400  -0.065500  1
  H  H303  1  0.083700  -0.503100  -0.127400  1
  H  H304  1  0.245300  -0.525500  -0.072200  1
  Si  Si305  1  0.742040  0.688180  0.488300  1.0
  Si  Si306  1  2.257960  0.311820  0.511700  1
  Si  Si307  1  1.757960  0.188180  0.011700  1.0
  Si  Si308  1  0.242040  -0.188180  -0.011700  1
