# generated using pymatgen
data_SiH19C20S
_symmetry_space_group_name_H-M   'P 1'
_cell_length_a   7.27140000
_cell_length_b   10.49650000
_cell_length_c   12.16150000
_cell_angle_alpha   65.25800000
_cell_angle_beta   88.28700000
_cell_angle_gamma   76.89500000
_symmetry_Int_Tables_number   1
_chemical_formula_structural   SiH19C20S
_chemical_formula_sum   'Si2 H38 C40 S2'
_cell_volume   818.83332358
_cell_formula_units_Z   2
loop_
 _symmetry_equiv_pos_site_id
 _symmetry_equiv_pos_as_xyz
  1  'x, y, z'
loop_
 _atom_site_type_symbol
 _atom_site_label
 _atom_site_symmetry_multiplicity
 _atom_site_fract_x
 _atom_site_fract_y
 _atom_site_fract_z
 _atom_site_occupancy
  C  C1  1  0.477300  -0.076800  0.293680  1
  C  C2  1  0.279300  0.236720  0.206180  1
  C  C3  1  0.554000  0.137330  0.048990  1
  C  C4  1  0.697200  0.131000  0.284360  1
  C  C5  1  0.478100  -0.201960  0.355730  1
  C  C6  1  0.117000  0.285700  0.111760  1
  C  C7  1  0.231200  0.389100  0.106520  1
  C  C8  1  0.667600  0.246200  -0.022520  1
  C  C9  1  0.755600  0.089100  0.019690  1
  C  C10  1  0.875900  0.011600  0.338020  1
  C  C11  1  0.739900  0.047200  0.421790  1
  C  C12  1  0.486800  -0.350970  0.428890  1
  C  C13  1  0.639800  -0.433570  0.517990  1
  C  C14  1  0.347000  -0.415050  0.410110  1
  C  C15  1  0.780800  -0.369890  0.536350  1
  C  C16  1  0.653000  -0.584950  0.589890  1
  C  C17  1  0.360200  -0.566430  0.482010  1
  C  C18  1  0.192600  -0.332790  0.322650  1
  C  C19  1  0.928600  -0.451870  0.621560  1
  C  C20  1  0.513200  -0.649030  0.571110  1
  C  C21  1  0.807400  -0.667210  0.677350  1
  C  C22  1  0.219200  -0.630110  0.463650  1
  C  C23  1  0.058000  -0.397340  0.306800  1
  C  C24  1  1.085000  -0.404800  0.651600  1
  C  C25  1  0.942000  -0.602660  0.693200  1
  C  C26  1  0.521900  -0.798040  0.644270  1
  C  C27  1  0.071400  -0.548130  0.378440  1
  C  C28  1  1.204800  -0.513900  0.741400  1
  C  C29  1  0.522700  -0.923200  0.706320  1
  C  C30  1  -0.085000  -0.595200  0.348400  1
  C  C31  1  -0.204800  -0.486100  0.258600  1
  C  C32  1  0.720700  -1.236720  0.793820  1
  C  C33  1  0.446000  -1.137330  0.951010  1
  C  C34  1  0.302800  -1.131000  0.715640  1
  C  C35  1  0.883000  -1.285700  0.888240  1
  C  C36  1  0.768800  -1.389100  0.893480  1
  C  C37  1  0.332400  -1.246200  1.022520  1
  C  C38  1  0.244400  -1.089100  0.980310  1
  C  C39  1  0.124100  -1.011600  0.661980  1
  C  C40  1  0.260100  -1.047200  0.578210  1
  H  H41  1  0.241100  0.227700  0.288300  1
  H  H42  1  0.452500  0.129000  0.000400  1
  H  H43  1  0.717900  0.231000  0.250100  1
  H  H44  1  0.133600  0.247400  0.049300  1
  H  H45  1  -0.013400  0.301100  0.137800  1
  H  H46  1  0.171600  0.468300  0.129400  1
  H  H47  1  0.318600  0.414600  0.040900  1
  H  H48  1  0.631300  0.303900  -0.110300  1
  H  H49  1  0.713700  0.298000  0.018600  1
  H  H50  1  0.855900  0.043900  0.087000  1
  H  H51  1  0.773400  0.049700  -0.042000  1
  H  H52  1  0.882800  -0.080300  0.331500  1
  H  H53  1  0.997900  0.040100  0.331800  1
  H  H54  1  0.778100  0.097900  0.466800  1
  H  H55  1  0.662900  -0.022600  0.466500  1
  H  H56  1  0.772900  -0.270000  0.489400  1
  H  H57  1  0.182200  -0.232700  0.274900  1
  H  H58  1  0.817800  -0.767300  0.725100  1
  H  H59  1  0.227100  -0.730000  0.510600  1
  H  H60  1  1.101100  -0.308900  0.612700  1
  H  H61  1  1.314500  -0.502000  0.773000  1
  H  H62  1  -0.101100  -0.691100  0.387300  1
  H  H63  1  -0.314500  -0.498000  0.227000  1
  H  H64  1  0.758900  -1.227700  0.711700  1
  H  H65  1  0.547500  -1.129000  0.999600  1
  H  H66  1  0.282100  -1.231000  0.749900  1
  H  H67  1  0.866400  -1.247400  0.950700  1
  H  H68  1  1.013400  -1.301100  0.862200  1
  H  H69  1  0.828400  -1.468300  0.870600  1
  H  H70  1  0.681400  -1.414600  0.959100  1
  H  H71  1  0.368700  -1.303900  1.110300  1
  H  H72  1  0.286300  -1.298000  0.981400  1
  H  H73  1  0.144100  -1.043900  0.913000  1
  H  H74  1  0.226600  -1.049700  1.042000  1
  H  H75  1  0.117200  -0.919700  0.668500  1
  H  H76  1  0.002100  -1.040100  0.668200  1
  H  H77  1  0.221900  -1.097900  0.533200  1
  H  H78  1  0.337100  -0.977400  0.533500  1
  S  S79  1  -0.140600  -0.321900  0.205900  1
  S  S80  1  1.140600  -0.678100  0.794100  1
  Si  Si81  1  0.500400  0.109600  0.206210  1.0
  Si  Si82  1  0.499600  -1.109600  0.793790  1
