# generated using pymatgen
data_SiH24C19SN
_symmetry_space_group_name_H-M   'P 1'
_cell_length_a   13.44970000
_cell_length_b   18.66730000
_cell_length_c   14.82150000
_cell_angle_alpha   90.00000000
_cell_angle_beta   99.34430000
_cell_angle_gamma   90.00000000
_symmetry_Int_Tables_number   1
_chemical_formula_structural   SiH24C19SN
_chemical_formula_sum   'Si8 H192 C152 S8 N8'
_cell_volume   3671.84891582
_cell_formula_units_Z   8
loop_
 _symmetry_equiv_pos_site_id
 _symmetry_equiv_pos_as_xyz
  1  'x, y, z'
loop_
 _atom_site_type_symbol
 _atom_site_label
 _atom_site_symmetry_multiplicity
 _atom_site_fract_x
 _atom_site_fract_y
 _atom_site_fract_z
 _atom_site_occupancy
  C  C1  1  0.828920  0.571200  0.196490  1
  C  C2  1  0.996040  0.598130  0.085270  1
  C  C3  1  0.858150  0.721420  0.136340  1
  C  C4  1  0.771110  0.602450  -0.001820  1
  C  C5  1  0.805020  0.536170  0.258250  1
  C  C6  1  1.065200  0.574760  0.172070  1
  C  C7  1  1.046700  0.656100  0.034760  1
  C  C8  1  0.931800  0.741030  0.222410  1
  C  C9  1  0.751570  0.742830  0.148170  1
  C  C10  1  0.792500  0.637500  -0.090110  1
  C  C11  1  0.760600  0.521980  -0.015700  1
  C  C12  1  0.781190  0.492480  0.331320  1
  C  C13  1  0.680770  0.485800  0.345700  1
  C  C14  1  0.860570  0.454930  0.386620  1
  C  C15  1  0.601850  0.524300  0.292170  1
  C  C16  1  0.657870  0.437860  0.415780  1
  C  C17  1  0.838020  0.407020  0.456710  1
  C  C18  1  0.962330  0.463530  0.374110  1
  C  C19  1  0.504540  0.515340  0.306970  1
  C  C20  1  0.556820  0.430290  0.429280  1
  C  C21  1  0.736650  0.397760  0.468250  1
  C  C22  1  0.917820  0.370490  0.512580  1
  C  C23  1  1.036770  0.427510  0.428430  1
  C  C24  1  0.481800  0.467700  0.376200  1
  C  C25  1  0.709570  0.345100  0.530360  1
  C  C26  1  1.014810  0.381060  0.499390  1
  C  C27  1  0.326700  0.503230  0.326600  1
  C  C28  1  0.681020  0.298400  0.576580  1
  C  C29  1  1.193500  0.396750  0.484400  1
  C  C30  1  0.733000  0.186950  0.721180  1
  C  C31  1  0.601700  0.151870  0.537400  1
  C  C32  1  0.521240  0.253610  0.685640  1
  C  C33  1  0.762800  0.242210  0.796770  1
  C  C34  1  0.824830  0.161600  0.681030  1
  C  C35  1  0.560300  0.082000  0.571900  1
  C  C36  1  0.534600  0.177600  0.451300  1
  C  C37  1  0.482900  0.196530  0.746600  1
  C  C38  1  0.433450  0.285820  0.620200  1
  C  C39  1  0.171080  0.071200  0.303510  1
  C  C40  1  0.003960  0.098130  0.414730  1
  C  C41  1  0.141850  0.221420  0.363660  1
  C  C42  1  0.228890  0.102450  0.501820  1
  C  C43  1  0.194980  0.036170  0.241750  1
  C  C44  1  -0.065200  0.074760  0.327930  1
  C  C45  1  -0.046700  0.156100  0.465240  1
  C  C46  1  0.068200  0.241030  0.277590  1
  C  C47  1  0.248430  0.242830  0.351830  1
  C  C48  1  0.207500  0.137500  0.590110  1
  C  C49  1  0.239400  0.021980  0.515700  1
  C  C50  1  0.218810  -0.007520  0.168680  1
  C  C51  1  0.319230  -0.014200  0.154300  1
  C  C52  1  0.139430  -0.045070  0.113380  1
  C  C53  1  0.398150  0.024300  0.207830  1
  C  C54  1  0.342130  -0.062140  0.084220  1
  C  C55  1  0.161980  -0.092980  0.043290  1
  C  C56  1  0.037670  -0.036470  0.125890  1
  C  C57  1  0.495460  0.015340  0.193030  1
  C  C58  1  0.443180  -0.069710  0.070720  1
  C  C59  1  0.263350  -0.102240  0.031750  1
  C  C60  1  0.082180  -0.129510  -0.012580  1
  C  C61  1  -0.036770  -0.072490  0.071570  1
  C  C62  1  0.518200  -0.032300  0.123800  1
  C  C63  1  0.290430  -0.154900  -0.030360  1
  C  C64  1  -0.014810  -0.118940  0.000610  1
  C  C65  1  0.673300  0.003230  0.173400  1
  C  C66  1  0.318980  -0.201600  -0.076580  1
  C  C67  1  -0.193500  -0.103250  0.015600  1
  C  C68  1  0.267000  -0.313050  -0.221180  1
  C  C69  1  0.398300  -0.348130  -0.037400  1
  C  C70  1  0.478760  -0.246390  -0.185640  1
  C  C71  1  0.237200  -0.257790  -0.296770  1
  C  C72  1  0.175170  -0.338400  -0.181030  1
  C  C73  1  0.439700  -0.418000  -0.071900  1
  C  C74  1  0.465400  -0.322400  0.048700  1
  C  C75  1  0.517100  -0.303470  -0.246600  1
  C  C76  1  0.566550  -0.214180  -0.120200  1
  C  C77  1  1.171080  0.428800  0.803510  1
  C  C78  1  1.003960  0.401870  0.914730  1
  C  C79  1  1.141850  0.278580  0.863660  1
  C  C80  1  1.228890  0.397550  1.001820  1
  C  C81  1  1.194980  0.463830  0.741750  1
  C  C82  1  0.934800  0.425240  0.827930  1
  C  C83  1  0.953300  0.343900  0.965240  1
  C  C84  1  1.068200  0.258970  0.777590  1
  C  C85  1  1.248430  0.257170  0.851830  1
  C  C86  1  1.207500  0.362500  1.090110  1
  C  C87  1  1.239400  0.478020  1.015700  1
  C  C88  1  1.218810  0.507520  0.668680  1
  C  C89  1  1.319230  0.514200  0.654300  1
  C  C90  1  1.139430  0.545070  0.613380  1
  C  C91  1  1.398150  0.475700  0.707830  1
  C  C92  1  1.342130  0.562140  0.584220  1
  C  C93  1  1.161980  0.592980  0.543290  1
  C  C94  1  1.037670  0.536470  0.625890  1
  C  C95  1  1.495460  0.484660  0.693030  1
  C  C96  1  1.443180  0.569710  0.570720  1
  C  C97  1  1.263350  0.602240  0.531750  1
  C  C98  1  1.082180  0.629510  0.487420  1
  C  C99  1  0.963230  0.572490  0.571570  1
  C  C100  1  1.518200  0.532300  0.623800  1
  C  C101  1  1.290430  0.654900  0.469640  1
  C  C102  1  0.985190  0.618940  0.500610  1
  C  C103  1  1.673300  0.496770  0.673400  1
  C  C104  1  1.318980  0.701600  0.423420  1
  C  C105  1  0.806500  0.603250  0.515600  1
  C  C106  1  1.267000  0.813050  0.278820  1
  C  C107  1  1.398300  0.848130  0.462600  1
  C  C108  1  1.478760  0.746390  0.314360  1
  C  C109  1  1.237200  0.757790  0.203230  1
  C  C110  1  1.175170  0.838400  0.318970  1
  C  C111  1  1.439700  0.918000  0.428100  1
  C  C112  1  1.465400  0.822400  0.548700  1
  C  C113  1  1.517100  0.803470  0.253400  1
  C  C114  1  1.566550  0.714180  0.379800  1
  C  C115  1  0.828920  -0.071200  0.696490  1
  C  C116  1  0.996040  -0.098130  0.585270  1
  C  C117  1  0.858150  -0.221420  0.636340  1
  C  C118  1  0.771110  -0.102450  0.498180  1
  C  C119  1  0.805020  -0.036170  0.758250  1
  C  C120  1  1.065200  -0.074760  0.672070  1
  C  C121  1  1.046700  -0.156100  0.534760  1
  C  C122  1  0.931800  -0.241030  0.722410  1
  C  C123  1  0.751570  -0.242830  0.648170  1
  C  C124  1  0.792500  -0.137500  0.409890  1
  C  C125  1  0.760600  -0.021980  0.484300  1
  C  C126  1  0.781190  0.007520  0.831320  1
  C  C127  1  0.680770  0.014200  0.845700  1
  C  C128  1  0.860570  0.045070  0.886620  1
  C  C129  1  0.601850  -0.024300  0.792170  1
  C  C130  1  0.657870  0.062140  0.915780  1
  C  C131  1  0.838020  0.092980  0.956710  1
  C  C132  1  0.962330  0.036470  0.874110  1
  C  C133  1  0.504540  -0.015340  0.806970  1
  C  C134  1  0.556820  0.069710  0.929280  1
  C  C135  1  0.736650  0.102240  0.968250  1
  C  C136  1  0.917820  0.129510  1.012580  1
  C  C137  1  1.036770  0.072490  0.928430  1
  C  C138  1  0.481800  0.032300  0.876200  1
  C  C139  1  0.709570  0.154900  1.030360  1
  C  C140  1  1.014810  0.118940  0.999390  1
  C  C141  1  0.326700  -0.003230  0.826600  1
  C  C142  1  0.681020  0.201600  1.076580  1
  C  C143  1  1.193500  0.103250  0.984400  1
  C  C144  1  0.733000  0.313050  1.221180  1
  C  C145  1  0.601700  0.348130  1.037400  1
  C  C146  1  0.521240  0.246390  1.185640  1
  C  C147  1  0.762800  0.257790  1.296770  1
  C  C148  1  0.824830  0.338400  1.181030  1
  C  C149  1  0.560300  0.418000  1.071900  1
  C  C150  1  0.534600  0.322400  0.951300  1
  C  C151  1  0.482900  0.303470  1.246600  1
  C  C152  1  0.433450  0.214180  1.120200  1
  H  H153  1  0.987700  0.555400  0.044100  1
  H  H154  1  0.876500  0.750900  0.085100  1
  H  H155  1  0.704200  0.620700  0.009200  1
  H  H156  1  1.133500  0.567400  0.158700  1
  H  H157  1  1.040200  0.529900  0.194400  1
  H  H158  1  1.066500  0.611900  0.218900  1
  H  H159  1  1.052600  0.700400  0.070600  1
  H  H160  1  1.005900  0.665000  -0.025200  1
  H  H161  1  1.114000  0.639800  0.026700  1
  H  H162  1  0.924300  0.791900  0.236400  1
  H  H163  1  1.000900  0.731900  0.212300  1
  H  H164  1  0.917500  0.711900  0.273800  1
  H  H165  1  0.729800  0.713400  0.196200  1
  H  H166  1  0.705600  0.735300  0.090500  1
  H  H167  1  0.750800  0.793500  0.165400  1
  H  H168  1  0.856300  0.619200  -0.104700  1
  H  H169  1  0.797100  0.689500  -0.081800  1
  H  H170  1  0.737800  0.626100  -0.140200  1
  H  H171  1  0.708100  0.512100  -0.068200  1
  H  H172  1  0.742100  0.499900  0.039300  1
  H  H173  1  0.824800  0.502000  -0.027000  1
  H  H174  1  0.616200  0.556300  0.246100  1
  H  H175  1  0.978300  0.494500  0.327700  1
  H  H176  1  0.540900  0.399000  0.475500  1
  H  H177  1  0.903800  0.338800  0.559000  1
  H  H178  1  0.255800  0.507300  0.322700  1
  H  H179  1  1.264900  0.395800  0.490500  1
  H  H180  1  0.705800  0.144300  0.750000  1
  H  H181  1  0.667900  0.139400  0.519100  1
  H  H182  1  0.548600  0.293400  0.727700  1
  H  H183  1  0.818000  0.223200  0.841700  1
  H  H184  1  0.704700  0.252500  0.827000  1
  H  H185  1  0.784700  0.286400  0.770200  1
  H  H186  1  0.849100  0.200700  0.646200  1
  H  H187  1  0.805900  0.120700  0.640500  1
  H  H188  1  0.878400  0.147200  0.730700  1
  H  H189  1  0.494400  0.091200  0.589700  1
  H  H190  1  0.607000  0.064300  0.624900  1
  H  H191  1  0.553100  0.046100  0.523100  1
  H  H192  1  0.531800  0.140900  0.403600  1
  H  H193  1  0.562100  0.222000  0.430100  1
  H  H194  1  0.466600  0.186500  0.464400  1
  H  H195  1  0.431600  0.217700  0.778500  1
  H  H196  1  0.539300  0.179100  0.791600  1
  H  H197  1  0.453500  0.156500  0.708700  1
  H  H198  1  0.401400  0.248500  0.578900  1
  H  H199  1  0.458400  0.324000  0.584400  1
  H  H200  1  0.384100  0.305700  0.655300  1
  H  H201  1  0.012300  0.055400  0.455900  1
  H  H202  1  0.123500  0.250900  0.414900  1
  H  H203  1  0.295800  0.120700  0.490800  1
  H  H204  1  -0.133500  0.067400  0.341300  1
  H  H205  1  -0.040200  0.029900  0.305600  1
  H  H206  1  -0.066500  0.111900  0.281100  1
  H  H207  1  -0.052600  0.200400  0.429400  1
  H  H208  1  -0.005900  0.165000  0.525200  1
  H  H209  1  -0.114000  0.139800  0.473300  1
  H  H210  1  0.075700  0.291900  0.263600  1
  H  H211  1  -0.000900  0.231900  0.287700  1
  H  H212  1  0.082500  0.211900  0.226200  1
  H  H213  1  0.270200  0.213400  0.303800  1
  H  H214  1  0.294400  0.235300  0.409500  1
  H  H215  1  0.249200  0.293500  0.334600  1
  H  H216  1  0.143700  0.119200  0.604700  1
  H  H217  1  0.202900  0.189500  0.581800  1
  H  H218  1  0.262200  0.126100  0.640200  1
  H  H219  1  0.291900  0.012100  0.568200  1
  H  H220  1  0.257900  -0.000100  0.460700  1
  H  H221  1  0.175200  0.002000  0.527000  1
  H  H222  1  0.383800  0.056300  0.253900  1
  H  H223  1  0.021700  -0.005500  0.172300  1
  H  H224  1  0.459100  -0.101000  0.024500  1
  H  H225  1  0.096200  -0.161200  -0.059000  1
  H  H226  1  0.744200  0.007300  0.177300  1
  H  H227  1  -0.264900  -0.104200  0.009500  1
  H  H228  1  0.294200  -0.355700  -0.250000  1
  H  H229  1  0.332100  -0.360600  -0.019100  1
  H  H230  1  0.451400  -0.206600  -0.227700  1
  H  H231  1  0.182000  -0.276800  -0.341700  1
  H  H232  1  0.295300  -0.247500  -0.327000  1
  H  H233  1  0.215300  -0.213600  -0.270200  1
  H  H234  1  0.150900  -0.299300  -0.146200  1
  H  H235  1  0.194100  -0.379300  -0.140500  1
  H  H236  1  0.121600  -0.352800  -0.230700  1
  H  H237  1  0.505600  -0.408800  -0.089700  1
  H  H238  1  0.393000  -0.435700  -0.124900  1
  H  H239  1  0.446900  -0.453900  -0.023100  1
  H  H240  1  0.468200  -0.359100  0.096400  1
  H  H241  1  0.437900  -0.278000  0.069900  1
  H  H242  1  0.533400  -0.313500  0.035600  1
  H  H243  1  0.568400  -0.282300  -0.278500  1
  H  H244  1  0.460700  -0.320900  -0.291600  1
  H  H245  1  0.546500  -0.343500  -0.208700  1
  H  H246  1  0.598600  -0.251500  -0.078900  1
  H  H247  1  0.541600  -0.176000  -0.084400  1
  H  H248  1  0.615900  -0.194300  -0.155300  1
  H  H249  1  1.012300  0.444600  0.955900  1
  H  H250  1  1.123500  0.249100  0.914900  1
  H  H251  1  1.295800  0.379300  0.990800  1
  H  H252  1  0.866500  0.432600  0.841300  1
  H  H253  1  0.959800  0.470100  0.805600  1
  H  H254  1  0.933500  0.388100  0.781100  1
  H  H255  1  0.947400  0.299600  0.929400  1
  H  H256  1  0.994100  0.335000  1.025200  1
  H  H257  1  0.886000  0.360200  0.973300  1
  H  H258  1  1.075700  0.208100  0.763600  1
  H  H259  1  0.999100  0.268100  0.787700  1
  H  H260  1  1.082500  0.288100  0.726200  1
  H  H261  1  1.270200  0.286600  0.803800  1
  H  H262  1  1.294400  0.264700  0.909500  1
  H  H263  1  1.249200  0.206500  0.834600  1
  H  H264  1  1.143700  0.380800  1.104700  1
  H  H265  1  1.202900  0.310500  1.081800  1
  H  H266  1  1.262200  0.373900  1.140200  1
  H  H267  1  1.291900  0.487900  1.068200  1
  H  H268  1  1.257900  0.500100  0.960700  1
  H  H269  1  1.175200  0.498000  1.027000  1
  H  H270  1  1.383800  0.443700  0.753900  1
  H  H271  1  1.021700  0.505500  0.672300  1
  H  H272  1  1.459100  0.601000  0.524500  1
  H  H273  1  1.096200  0.661200  0.441000  1
  H  H274  1  1.744200  0.492700  0.677300  1
  H  H275  1  0.735100  0.604200  0.509500  1
  H  H276  1  1.294200  0.855700  0.250000  1
  H  H277  1  1.332100  0.860600  0.480900  1
  H  H278  1  1.451400  0.706600  0.272300  1
  H  H279  1  1.182000  0.776800  0.158300  1
  H  H280  1  1.295300  0.747500  0.173000  1
  H  H281  1  1.215300  0.713600  0.229800  1
  H  H282  1  1.150900  0.799300  0.353800  1
  H  H283  1  1.194100  0.879300  0.359500  1
  H  H284  1  1.121600  0.852800  0.269300  1
  H  H285  1  1.505600  0.908800  0.410300  1
  H  H286  1  1.393000  0.935700  0.375100  1
  H  H287  1  1.446900  0.953900  0.476900  1
  H  H288  1  1.468200  0.859100  0.596400  1
  H  H289  1  1.437900  0.778000  0.569900  1
  H  H290  1  1.533400  0.813500  0.535600  1
  H  H291  1  1.568400  0.782300  0.221500  1
  H  H292  1  1.460700  0.820900  0.208400  1
  H  H293  1  1.546500  0.843500  0.291300  1
  H  H294  1  1.598600  0.751500  0.421100  1
  H  H295  1  1.541600  0.676000  0.415600  1
  H  H296  1  1.615900  0.694300  0.344700  1
  H  H297  1  0.987700  -0.055400  0.544100  1
  H  H298  1  0.876500  -0.250900  0.585100  1
  H  H299  1  0.704200  -0.120700  0.509200  1
  H  H300  1  1.133500  -0.067400  0.658700  1
  H  H301  1  1.040200  -0.029900  0.694400  1
  H  H302  1  1.066500  -0.111900  0.718900  1
  H  H303  1  1.052600  -0.200400  0.570600  1
  H  H304  1  1.005900  -0.165000  0.474800  1
  H  H305  1  1.114000  -0.139800  0.526700  1
  H  H306  1  0.924300  -0.291900  0.736400  1
  H  H307  1  1.000900  -0.231900  0.712300  1
  H  H308  1  0.917500  -0.211900  0.773800  1
  H  H309  1  0.729800  -0.213400  0.696200  1
  H  H310  1  0.705600  -0.235300  0.590500  1
  H  H311  1  0.750800  -0.293500  0.665400  1
  H  H312  1  0.856300  -0.119200  0.395300  1
  H  H313  1  0.797100  -0.189500  0.418200  1
  H  H314  1  0.737800  -0.126100  0.359800  1
  H  H315  1  0.708100  -0.012100  0.431800  1
  H  H316  1  0.742100  0.000100  0.539300  1
  H  H317  1  0.824800  -0.002000  0.473000  1
  H  H318  1  0.616200  -0.056300  0.746100  1
  H  H319  1  0.978300  0.005500  0.827700  1
  H  H320  1  0.540900  0.101000  0.975500  1
  H  H321  1  0.903800  0.161200  1.059000  1
  H  H322  1  0.255800  -0.007300  0.822700  1
  H  H323  1  1.264900  0.104200  0.990500  1
  H  H324  1  0.705800  0.355700  1.250000  1
  H  H325  1  0.667900  0.360600  1.019100  1
  H  H326  1  0.548600  0.206600  1.227700  1
  H  H327  1  0.818000  0.276800  1.341700  1
  H  H328  1  0.704700  0.247500  1.327000  1
  H  H329  1  0.784700  0.213600  1.270200  1
  H  H330  1  0.849100  0.299300  1.146200  1
  H  H331  1  0.805900  0.379300  1.140500  1
  H  H332  1  0.878400  0.352800  1.230700  1
  H  H333  1  0.494400  0.408800  1.089700  1
  H  H334  1  0.607000  0.435700  1.124900  1
  H  H335  1  0.553100  0.453900  1.023100  1
  H  H336  1  0.531800  0.359100  0.903600  1
  H  H337  1  0.562100  0.278000  0.930100  1
  H  H338  1  0.466600  0.313500  0.964400  1
  H  H339  1  0.431600  0.282300  1.278500  1
  H  H340  1  0.539300  0.320900  1.291600  1
  H  H341  1  0.453500  0.343500  1.208700  1
  H  H342  1  0.401400  0.251500  1.078900  1
  H  H343  1  0.458400  0.176000  1.084400  1
  H  H344  1  0.384100  0.194300  1.155300  1
  N  N345  1  1.138100  0.435500  0.419400  1
  N  N346  1  0.379500  0.460100  0.387400  1
  N  N347  1  -0.138100  -0.064500  0.080600  1
  N  N348  1  0.620500  -0.039900  0.112600  1
  N  N349  1  0.861900  0.564500  0.580600  1
  N  N350  1  1.620500  0.539900  0.612600  1
  N  N351  1  1.138100  0.064500  0.919400  1
  N  N352  1  0.379500  0.039900  0.887400  1
  S  S353  1  0.390230  0.551990  0.254440  1
  S  S354  1  1.130910  0.348210  0.557500  1
  S  S355  1  0.609770  0.051990  0.245560  1
  S  S356  1  -0.130910  -0.151790  -0.057500  1
  S  S357  1  1.609770  0.448010  0.745560  1
  S  S358  1  0.869090  0.651790  0.442500  1
  S  S359  1  0.390230  -0.051990  0.754440  1
  S  S360  1  1.130910  0.151790  1.057500  1
  Si  Si361  1  0.865020  0.624900  0.102330  1.0
  Si  Si362  1  0.629850  0.221020  0.631570  1
  Si  Si363  1  0.134980  0.124900  0.397670  1.0
  Si  Si364  1  0.370150  -0.278980  -0.131570  1
  Si  Si365  1  1.134980  0.375100  0.897670  1.0
  Si  Si366  1  1.370150  0.778980  0.368430  1
  Si  Si367  1  0.865020  -0.124900  0.602330  1.0
  Si  Si368  1  0.629850  0.278980  1.131570  1
