# generated using pymatgen
data_SiH32C25S
_symmetry_space_group_name_H-M   'P 1'
_cell_length_a   18.92860000
_cell_length_b   17.37360000
_cell_length_c   14.62530000
_cell_angle_alpha   90.00000000
_cell_angle_beta   111.55400000
_cell_angle_gamma   90.00000000
_symmetry_Int_Tables_number   1
_chemical_formula_structural   SiH32C25S
_chemical_formula_sum   'Si8 H256 C200 S8'
_cell_volume   4473.31562575
_cell_formula_units_Z   8
loop_
 _symmetry_equiv_pos_site_id
 _symmetry_equiv_pos_as_xyz
  1  'x, y, z'
loop_
 _atom_site_type_symbol
 _atom_site_label
 _atom_site_symmetry_multiplicity
 _atom_site_fract_x
 _atom_site_fract_y
 _atom_site_fract_z
 _atom_site_occupancy
  C  C1  1  0.793500  0.202100  0.696300  1
  C  C2  1  0.656000  0.290000  0.598000  1
  C  C3  1  0.651400  0.116000  0.663000  1
  C  C4  1  0.697600  0.150000  0.497000  1
  C  C5  1  0.858600  0.209700  0.749200  1
  C  C6  1  0.692000  0.358000  0.592000  1
  C  C7  1  0.570000  0.286000  0.526000  1
  C  C8  1  0.572100  0.083000  0.605000  1
  C  C9  1  0.683800  0.081000  0.745000  1
  C  C10  1  0.751300  0.109000  0.485800  1
  C  C11  1  0.616100  0.143000  0.425000  1
  C  C12  1  0.936800  0.224400  0.815400  1
  C  C13  1  0.681000  0.427000  0.586000  1
  C  C14  1  0.653000  0.033000  0.809000  1
  C  C15  1  0.762700  0.087000  0.395800  1
  C  C16  1  0.983100  0.157500  0.854400  1
  C  C17  1  0.963100  0.298300  0.835200  1
  C  C18  1  0.958700  0.084800  0.836000  1
  C  C19  1  1.060300  0.172100  0.921500  1
  C  C20  1  1.039300  0.315100  0.902600  1
  C  C21  1  0.918100  0.366500  0.798000  1
  C  C22  1  1.002500  0.018700  0.877300  1
  C  C23  1  1.104700  0.105600  0.960600  1
  C  C24  1  1.084800  0.248600  0.944100  1
  C  C25  1  1.065100  0.389500  0.926900  1
  C  C26  1  0.942800  0.439000  0.821700  1
  C  C27  1  0.973900  -0.058500  0.852700  1
  C  C28  1  1.078700  0.034500  0.940800  1
  C  C29  1  1.159300  0.257700  1.016600  1
  C  C30  1  1.017800  0.451400  0.885700  1
  C  C31  1  0.916700  0.521800  0.800000  1
  C  C32  1  1.021200  -0.116500  0.896700  1
  C  C33  1  1.124800  -0.033500  0.980800  1
  C  C34  1  1.222900  0.265200  1.079000  1
  C  C35  1  0.946600  0.573100  0.825200  1
  C  C36  1  1.096500  -0.104600  0.959900  1
  C  C37  1  1.114600  -0.188000  0.992000  1
  C  C38  1  1.086600  -0.238500  0.959000  1
  C  C39  1  1.286800  0.236000  1.293200  1
  C  C40  1  1.355000  0.360800  1.200000  1
  C  C41  1  1.376200  0.195000  1.165000  1
  C  C42  1  1.234600  0.159000  1.277000  1
  C  C43  1  1.224000  0.311000  1.301000  1
  C  C44  1  1.419900  0.373100  1.282000  1
  C  C45  1  1.360700  0.393000  1.110000  1
  C  C46  1  1.375200  0.169000  1.088000  1
  C  C47  1  1.442900  0.174000  1.257000  1
  C  C48  1  1.228100  0.119000  1.348000  1
  C  C49  1  1.445700  0.456100  1.309000  1
  C  C50  1  1.426000  0.122000  1.064000  1
  C  C51  1  1.206500  0.702100  0.803700  1
  C  C52  1  1.344000  0.790000  0.902000  1
  C  C53  1  1.348600  0.616000  0.837000  1
  C  C54  1  1.302400  0.650000  1.003000  1
  C  C55  1  1.141400  0.709700  0.750800  1
  C  C56  1  1.308000  0.858000  0.908000  1
  C  C57  1  1.430000  0.786000  0.974000  1
  C  C58  1  1.427900  0.583000  0.895000  1
  C  C59  1  1.316200  0.581000  0.755000  1
  C  C60  1  1.248700  0.609000  1.014200  1
  C  C61  1  1.383900  0.643000  1.075000  1
  C  C62  1  1.063200  0.724400  0.684600  1
  C  C63  1  1.319000  0.927000  0.914000  1
  C  C64  1  1.347000  0.533000  0.691000  1
  C  C65  1  1.237300  0.587000  1.104200  1
  C  C66  1  1.016900  0.657500  0.645600  1
  C  C67  1  1.036900  0.798300  0.664800  1
  C  C68  1  1.041300  0.584800  0.664000  1
  C  C69  1  0.939700  0.672100  0.578500  1
  C  C70  1  0.960700  0.815100  0.597400  1
  C  C71  1  1.081900  0.866500  0.702000  1
  C  C72  1  0.997500  0.518700  0.622700  1
  C  C73  1  0.895300  0.605600  0.539400  1
  C  C74  1  0.915200  0.748600  0.555900  1
  C  C75  1  0.934900  0.889500  0.573100  1
  C  C76  1  1.057200  0.939000  0.678300  1
  C  C77  1  1.026100  0.441500  0.647300  1
  C  C78  1  0.921300  0.534500  0.559200  1
  C  C79  1  0.840700  0.757700  0.483400  1
  C  C80  1  0.982200  0.951400  0.614300  1
  C  C81  1  1.083300  1.021800  0.700000  1
  C  C82  1  0.978800  0.383500  0.603300  1
  C  C83  1  0.875200  0.466500  0.519200  1
  C  C84  1  0.777100  0.765200  0.421000  1
  C  C85  1  1.053400  1.073100  0.674800  1
  C  C86  1  0.903500  0.395400  0.540100  1
  C  C87  1  0.885400  0.312000  0.508000  1
  C  C88  1  0.913400  0.261500  0.541000  1
  C  C89  1  0.713200  0.736000  0.206800  1
  C  C90  1  0.645000  0.860800  0.300000  1
  C  C91  1  0.623800  0.695000  0.335000  1
  C  C92  1  0.765400  0.659000  0.223000  1
  C  C93  1  0.776000  0.811000  0.199000  1
  C  C94  1  0.580100  0.873100  0.218000  1
  C  C95  1  0.639300  0.893000  0.390000  1
  C  C96  1  0.624800  0.669000  0.412000  1
  C  C97  1  0.557100  0.674000  0.243000  1
  C  C98  1  0.771900  0.619000  0.152000  1
  C  C99  1  0.554300  0.956100  0.191000  1
  C  C100  1  0.574000  0.622000  0.436000  1
  C  C101  1  1.206500  -0.202100  1.303700  1
  C  C102  1  1.344000  -0.290000  1.402000  1
  C  C103  1  1.348600  -0.116000  1.337000  1
  C  C104  1  1.302400  -0.150000  1.503000  1
  C  C105  1  1.141400  -0.209700  1.250800  1
  C  C106  1  1.308000  -0.358000  1.408000  1
  C  C107  1  1.430000  -0.286000  1.474000  1
  C  C108  1  1.427900  -0.083000  1.395000  1
  C  C109  1  1.316200  -0.081000  1.255000  1
  C  C110  1  1.248700  -0.109000  1.514200  1
  C  C111  1  1.383900  -0.143000  1.575000  1
  C  C112  1  1.063200  -0.224400  1.184600  1
  C  C113  1  1.319000  -0.427000  1.414000  1
  C  C114  1  1.347000  -0.033000  1.191000  1
  C  C115  1  1.237300  -0.087000  1.604200  1
  C  C116  1  1.016900  -0.157500  1.145600  1
  C  C117  1  1.036900  -0.298300  1.164800  1
  C  C118  1  1.041300  -0.084800  1.164000  1
  C  C119  1  0.939700  -0.172100  1.078500  1
  C  C120  1  0.960700  -0.315100  1.097400  1
  C  C121  1  1.081900  -0.366500  1.202000  1
  C  C122  1  0.997500  -0.018700  1.122700  1
  C  C123  1  0.895300  -0.105600  1.039400  1
  C  C124  1  0.915200  -0.248600  1.055900  1
  C  C125  1  0.934900  -0.389500  1.073100  1
  C  C126  1  1.057200  -0.439000  1.178300  1
  C  C127  1  1.026100  0.058500  1.147300  1
  C  C128  1  0.921300  -0.034500  1.059200  1
  C  C129  1  0.840700  -0.257700  0.983400  1
  C  C130  1  0.982200  -0.451400  1.114300  1
  C  C131  1  1.083300  -0.521800  1.200000  1
  C  C132  1  0.978800  0.116500  1.103300  1
  C  C133  1  0.875200  0.033500  1.019200  1
  C  C134  1  0.777100  -0.265200  0.921000  1
  C  C135  1  1.053400  -0.573100  1.174800  1
  C  C136  1  0.903500  0.104600  1.040100  1
  C  C137  1  0.885400  0.188000  1.008000  1
  C  C138  1  0.913400  0.238500  1.041000  1
  C  C139  1  0.713200  -0.236000  0.706800  1
  C  C140  1  0.645000  -0.360800  0.800000  1
  C  C141  1  0.623800  -0.195000  0.835000  1
  C  C142  1  0.765400  -0.159000  0.723000  1
  C  C143  1  0.776000  -0.311000  0.699000  1
  C  C144  1  0.580100  -0.373100  0.718000  1
  C  C145  1  0.639300  -0.393000  0.890000  1
  C  C146  1  0.624800  -0.169000  0.912000  1
  C  C147  1  0.557100  -0.174000  0.743000  1
  C  C148  1  0.771900  -0.119000  0.652000  1
  C  C149  1  0.554300  -0.456100  0.691000  1
  C  C150  1  0.574000  -0.122000  0.936000  1
  C  C151  1  0.793500  0.297900  0.196300  1
  C  C152  1  0.656000  0.210000  0.098000  1
  C  C153  1  0.651400  0.384000  0.163000  1
  C  C154  1  0.697600  0.350000  -0.003000  1
  C  C155  1  0.858600  0.290300  0.249200  1
  C  C156  1  0.692000  0.142000  0.092000  1
  C  C157  1  0.570000  0.214000  0.026000  1
  C  C158  1  0.572100  0.417000  0.105000  1
  C  C159  1  0.683800  0.419000  0.245000  1
  C  C160  1  0.751300  0.391000  -0.014200  1
  C  C161  1  0.616100  0.357000  -0.075000  1
  C  C162  1  0.936800  0.275600  0.315400  1
  C  C163  1  0.681000  0.073000  0.086000  1
  C  C164  1  0.653000  0.467000  0.309000  1
  C  C165  1  0.762700  0.413000  -0.104200  1
  C  C166  1  0.983100  0.342500  0.354400  1
  C  C167  1  0.963100  0.201700  0.335200  1
  C  C168  1  0.958700  0.415200  0.336000  1
  C  C169  1  1.060300  0.327900  0.421500  1
  C  C170  1  1.039300  0.184900  0.402600  1
  C  C171  1  0.918100  0.133500  0.298000  1
  C  C172  1  1.002500  0.481300  0.377300  1
  C  C173  1  1.104700  0.394400  0.460600  1
  C  C174  1  1.084800  0.251400  0.444100  1
  C  C175  1  1.065100  0.110500  0.426900  1
  C  C176  1  0.942800  0.061000  0.321700  1
  C  C177  1  0.973900  0.558500  0.352700  1
  C  C178  1  1.078700  0.465500  0.440800  1
  C  C179  1  1.159300  0.242300  0.516600  1
  C  C180  1  1.017800  0.048600  0.385700  1
  C  C181  1  0.916700  -0.021800  0.300000  1
  C  C182  1  1.021200  0.616500  0.396700  1
  C  C183  1  1.124800  0.533500  0.480800  1
  C  C184  1  1.222900  0.234800  0.579000  1
  C  C185  1  0.946600  -0.073100  0.325200  1
  C  C186  1  1.096500  0.604600  0.459900  1
  C  C187  1  1.114600  0.688000  0.492000  1
  C  C188  1  1.086600  0.738500  0.459000  1
  C  C189  1  1.286800  0.264000  0.793200  1
  C  C190  1  1.355000  0.139200  0.700000  1
  C  C191  1  1.376200  0.305000  0.665000  1
  C  C192  1  1.234600  0.341000  0.777000  1
  C  C193  1  1.224000  0.189000  0.801000  1
  C  C194  1  1.419900  0.126900  0.782000  1
  C  C195  1  1.360700  0.107000  0.610000  1
  C  C196  1  1.375200  0.331000  0.588000  1
  C  C197  1  1.442900  0.326000  0.757000  1
  C  C198  1  1.228100  0.381000  0.848000  1
  C  C199  1  1.445700  0.043900  0.809000  1
  C  C200  1  1.426000  0.378000  0.564000  1
  H  H201  1  0.650200  0.296400  0.663200  1
  H  H202  1  0.630100  0.156500  0.694200  1
  H  H203  1  0.709500  0.199400  0.470100  1
  H  H204  1  0.740300  0.353600  0.650000  1
  H  H205  1  0.707100  0.347400  0.534900  1
  H  H206  1  0.547000  0.238600  0.538400  1
  H  H207  1  0.568100  0.285700  0.457800  1
  H  H208  1  0.542700  0.330600  0.536300  1
  H  H209  1  0.552500  0.105200  0.538700  1
  H  H210  1  0.537700  0.095600  0.639000  1
  H  H211  1  0.575700  0.026900  0.600200  1
  H  H212  1  0.714700  0.121100  0.789700  1
  H  H213  1  0.720800  0.046300  0.732200  1
  H  H214  1  0.750600  0.059900  0.519700  1
  H  H215  1  0.799100  0.135100  0.526400  1
  H  H216  1  0.584400  0.181500  0.439800  1
  H  H217  1  0.597000  0.091100  0.430900  1
  H  H218  1  0.614500  0.150000  0.357800  1
  H  H219  1  0.725000  0.453500  0.579400  1
  H  H220  1  0.674300  0.445800  0.645700  1
  H  H221  1  0.635500  0.438700  0.528600  1
  H  H222  1  0.690600  0.031000  0.876200  1
  H  H223  1  0.641900  -0.019300  0.782600  1
  H  H224  1  0.606000  0.056600  0.809900  1
  H  H225  1  0.806300  0.052000  0.412100  1
  H  H226  1  0.772300  0.132900  0.363400  1
  H  H227  1  0.717100  0.060700  0.351400  1
  H  H228  1  0.907900  0.076900  0.791900  1
  H  H229  1  0.867400  0.359500  0.753500  1
  H  H230  1  1.156000  0.112700  1.003500  1
  H  H231  1  1.115300  0.398300  0.972000  1
  H  H232  1  0.923800  -0.067900  0.807400  1
  H  H233  1  0.865300  0.528200  0.757600  1
  H  H234  1  1.176400  -0.027200  1.022800  1
  H  H235  1  0.927800  0.623900  0.808400  1
  H  H236  1  1.157500  -0.195400  1.050800  1
  H  H237  1  1.106500  -0.289300  0.969300  1
  H  H238  1  1.332800  0.231900  1.355000  1
  H  H239  1  1.316300  0.394300  1.211700  1
  H  H240  1  1.345200  0.151400  1.174300  1
  H  H241  1  1.182500  0.174300  1.234100  1
  H  H242  1  1.252700  0.122900  1.237600  1
  H  H243  1  1.251900  0.360000  1.317000  1
  H  H244  1  1.204000  0.298800  1.352300  1
  H  H245  1  1.181600  0.316200  1.237600  1
  H  H246  1  1.462100  0.344900  1.272600  1
  H  H247  1  1.411900  0.349400  1.339100  1
  H  H248  1  1.312400  0.385600  1.054900  1
  H  H249  1  1.401300  0.366700  1.095800  1
  H  H250  1  1.372100  0.448100  1.119200  1
  H  H251  1  1.369200  0.215400  1.045600  1
  H  H252  1  1.326200  0.141700  1.060900  1
  H  H253  1  1.428600  0.179900  1.314200  1
  H  H254  1  1.485700  0.208500  1.263200  1
  H  H255  1  1.457800  0.120800  1.251700  1
  H  H256  1  1.198000  0.073000  1.321600  1
  H  H257  1  1.202800  0.150500  1.382700  1
  H  H258  1  1.278700  0.104400  1.393700  1
  H  H259  1  1.492000  0.456500  1.368600  1
  H  H260  1  1.405600  0.484800  1.322000  1
  H  H261  1  1.456000  0.480300  1.255000  1
  H  H262  1  1.424400  0.135600  0.997700  1
  H  H263  1  1.411900  0.068300  1.064900  1
  H  H264  1  1.477800  0.130400  1.111400  1
  H  H265  1  1.349800  0.796400  0.836800  1
  H  H266  1  1.369900  0.656500  0.805800  1
  H  H267  1  1.290500  0.699400  1.029900  1
  H  H268  1  1.259700  0.853600  0.850000  1
  H  H269  1  1.292900  0.847400  0.965100  1
  H  H270  1  1.453000  0.738600  0.961600  1
  H  H271  1  1.431900  0.785700  1.042200  1
  H  H272  1  1.457300  0.830600  0.963700  1
  H  H273  1  1.447500  0.605200  0.961300  1
  H  H274  1  1.462300  0.595600  0.861000  1
  H  H275  1  1.424300  0.526900  0.899800  1
  H  H276  1  1.285300  0.621100  0.710300  1
  H  H277  1  1.279200  0.546300  0.767800  1
  H  H278  1  1.249400  0.559900  0.980300  1
  H  H279  1  1.200900  0.635100  0.973600  1
  H  H280  1  1.415600  0.681500  1.060200  1
  H  H281  1  1.403000  0.591100  1.069100  1
  H  H282  1  1.385500  0.650000  1.142200  1
  H  H283  1  1.275000  0.953500  0.920600  1
  H  H284  1  1.325700  0.945800  0.854300  1
  H  H285  1  1.364500  0.938700  0.971400  1
  H  H286  1  1.309400  0.531000  0.623800  1
  H  H287  1  1.358100  0.480700  0.717400  1
  H  H288  1  1.394000  0.556600  0.690100  1
  H  H289  1  1.193700  0.552000  1.087900  1
  H  H290  1  1.227700  0.632900  1.136600  1
  H  H291  1  1.282900  0.560700  1.148600  1
  H  H292  1  1.092100  0.576900  0.708100  1
  H  H293  1  1.132600  0.859500  0.746500  1
  H  H294  1  0.844000  0.612700  0.496500  1
  H  H295  1  0.884700  0.898300  0.528000  1
  H  H296  1  1.076200  0.432100  0.692600  1
  H  H297  1  1.134700  1.028200  0.742400  1
  H  H298  1  0.823600  0.472800  0.477200  1
  H  H299  1  1.072200  1.123900  0.691600  1
  H  H300  1  0.842500  0.304600  0.449200  1
  H  H301  1  0.893500  0.210700  0.530700  1
  H  H302  1  0.667200  0.731900  0.145000  1
  H  H303  1  0.683700  0.894300  0.288300  1
  H  H304  1  0.654800  0.651400  0.325700  1
  H  H305  1  0.817500  0.674300  0.265900  1
  H  H306  1  0.747300  0.622900  0.262400  1
  H  H307  1  0.748100  0.860000  0.183000  1
  H  H308  1  0.796000  0.798800  0.147700  1
  H  H309  1  0.818400  0.816200  0.262400  1
  H  H310  1  0.537900  0.844900  0.227400  1
  H  H311  1  0.588100  0.849400  0.160900  1
  H  H312  1  0.687600  0.885600  0.445100  1
  H  H313  1  0.598700  0.866700  0.404200  1
  H  H314  1  0.627900  0.948100  0.380800  1
  H  H315  1  0.630800  0.715400  0.454400  1
  H  H316  1  0.673800  0.641700  0.439100  1
  H  H317  1  0.571400  0.679900  0.185800  1
  H  H318  1  0.514300  0.708500  0.236800  1
  H  H319  1  0.542200  0.620800  0.248300  1
  H  H320  1  0.802000  0.573000  0.178400  1
  H  H321  1  0.797200  0.650500  0.117300  1
  H  H322  1  0.721300  0.604400  0.106300  1
  H  H323  1  0.508000  0.956500  0.131400  1
  H  H324  1  0.594400  0.984800  0.178000  1
  H  H325  1  0.544000  0.980300  0.245000  1
  H  H326  1  0.575600  0.635600  0.502300  1
  H  H327  1  0.588100  0.568300  0.435100  1
  H  H328  1  0.522200  0.630400  0.388600  1
  H  H329  1  1.349800  -0.296400  1.336800  1
  H  H330  1  1.369900  -0.156500  1.305800  1
  H  H331  1  1.290500  -0.199400  1.529900  1
  H  H332  1  1.259700  -0.353600  1.350000  1
  H  H333  1  1.292900  -0.347400  1.465100  1
  H  H334  1  1.453000  -0.238600  1.461600  1
  H  H335  1  1.431900  -0.285700  1.542200  1
  H  H336  1  1.457300  -0.330600  1.463700  1
  H  H337  1  1.447500  -0.105200  1.461300  1
  H  H338  1  1.462300  -0.095600  1.361000  1
  H  H339  1  1.424300  -0.026900  1.399800  1
  H  H340  1  1.285300  -0.121100  1.210300  1
  H  H341  1  1.279200  -0.046300  1.267800  1
  H  H342  1  1.249400  -0.059900  1.480300  1
  H  H343  1  1.200900  -0.135100  1.473600  1
  H  H344  1  1.415600  -0.181500  1.560200  1
  H  H345  1  1.403000  -0.091100  1.569100  1
  H  H346  1  1.385500  -0.150000  1.642200  1
  H  H347  1  1.275000  -0.453500  1.420600  1
  H  H348  1  1.325700  -0.445800  1.354300  1
  H  H349  1  1.364500  -0.438700  1.471400  1
  H  H350  1  1.309400  -0.031000  1.123800  1
  H  H351  1  1.358100  0.019300  1.217400  1
  H  H352  1  1.394000  -0.056600  1.190100  1
  H  H353  1  1.193700  -0.052000  1.587900  1
  H  H354  1  1.227700  -0.132900  1.636600  1
  H  H355  1  1.282900  -0.060700  1.648600  1
  H  H356  1  1.092100  -0.076900  1.208100  1
  H  H357  1  1.132600  -0.359500  1.246500  1
  H  H358  1  0.844000  -0.112700  0.996500  1
  H  H359  1  0.884700  -0.398300  1.028000  1
  H  H360  1  1.076200  0.067900  1.192600  1
  H  H361  1  1.134700  -0.528200  1.242400  1
  H  H362  1  0.823600  0.027200  0.977200  1
  H  H363  1  1.072200  -0.623900  1.191600  1
  H  H364  1  0.842500  0.195400  0.949200  1
  H  H365  1  0.893500  0.289300  1.030700  1
  H  H366  1  0.667200  -0.231900  0.645000  1
  H  H367  1  0.683700  -0.394300  0.788300  1
  H  H368  1  0.654800  -0.151400  0.825700  1
  H  H369  1  0.817500  -0.174300  0.765900  1
  H  H370  1  0.747300  -0.122900  0.762400  1
  H  H371  1  0.748100  -0.360000  0.683000  1
  H  H372  1  0.796000  -0.298800  0.647700  1
  H  H373  1  0.818400  -0.316200  0.762400  1
  H  H374  1  0.537900  -0.344900  0.727400  1
  H  H375  1  0.588100  -0.349400  0.660900  1
  H  H376  1  0.687600  -0.385600  0.945100  1
  H  H377  1  0.598700  -0.366700  0.904200  1
  H  H378  1  0.627900  -0.448100  0.880800  1
  H  H379  1  0.630800  -0.215400  0.954400  1
  H  H380  1  0.673800  -0.141700  0.939100  1
  H  H381  1  0.571400  -0.179900  0.685800  1
  H  H382  1  0.514300  -0.208500  0.736800  1
  H  H383  1  0.542200  -0.120800  0.748300  1
  H  H384  1  0.802000  -0.073000  0.678400  1
  H  H385  1  0.797200  -0.150500  0.617300  1
  H  H386  1  0.721300  -0.104400  0.606300  1
  H  H387  1  0.508000  -0.456500  0.631400  1
  H  H388  1  0.594400  -0.484800  0.678000  1
  H  H389  1  0.544000  -0.480300  0.745000  1
  H  H390  1  0.575600  -0.135600  1.002300  1
  H  H391  1  0.588100  -0.068300  0.935100  1
  H  H392  1  0.522200  -0.130400  0.888600  1
  H  H393  1  0.650200  0.203600  0.163200  1
  H  H394  1  0.630100  0.343500  0.194200  1
  H  H395  1  0.709500  0.300600  -0.029900  1
  H  H396  1  0.740300  0.146400  0.150000  1
  H  H397  1  0.707100  0.152600  0.034900  1
  H  H398  1  0.547000  0.261400  0.038400  1
  H  H399  1  0.568100  0.214300  -0.042200  1
  H  H400  1  0.542700  0.169400  0.036300  1
  H  H401  1  0.552500  0.394800  0.038700  1
  H  H402  1  0.537700  0.404400  0.139000  1
  H  H403  1  0.575700  0.473100  0.100200  1
  H  H404  1  0.714700  0.378900  0.289700  1
  H  H405  1  0.720800  0.453700  0.232200  1
  H  H406  1  0.750600  0.440100  0.019700  1
  H  H407  1  0.799100  0.364900  0.026400  1
  H  H408  1  0.584400  0.318500  -0.060200  1
  H  H409  1  0.597000  0.408900  -0.069100  1
  H  H410  1  0.614500  0.350000  -0.142200  1
  H  H411  1  0.725000  0.046500  0.079400  1
  H  H412  1  0.674300  0.054200  0.145700  1
  H  H413  1  0.635500  0.061300  0.028600  1
  H  H414  1  0.690600  0.469000  0.376200  1
  H  H415  1  0.641900  0.519300  0.282600  1
  H  H416  1  0.606000  0.443400  0.309900  1
  H  H417  1  0.806300  0.448000  -0.087900  1
  H  H418  1  0.772300  0.367100  -0.136600  1
  H  H419  1  0.717100  0.439300  -0.148600  1
  H  H420  1  0.907900  0.423100  0.291900  1
  H  H421  1  0.867400  0.140500  0.253500  1
  H  H422  1  1.156000  0.387300  0.503500  1
  H  H423  1  1.115300  0.101700  0.472000  1
  H  H424  1  0.923800  0.567900  0.307400  1
  H  H425  1  0.865300  -0.028200  0.257600  1
  H  H426  1  1.176400  0.527200  0.522800  1
  H  H427  1  0.927800  -0.123900  0.308400  1
  H  H428  1  1.157500  0.695400  0.550800  1
  H  H429  1  1.106500  0.789300  0.469300  1
  H  H430  1  1.332800  0.268100  0.855000  1
  H  H431  1  1.316300  0.105700  0.711700  1
  H  H432  1  1.345200  0.348600  0.674300  1
  H  H433  1  1.182500  0.325700  0.734100  1
  H  H434  1  1.252700  0.377100  0.737600  1
  H  H435  1  1.251900  0.140000  0.817000  1
  H  H436  1  1.204000  0.201200  0.852300  1
  H  H437  1  1.181600  0.183800  0.737600  1
  H  H438  1  1.462100  0.155100  0.772600  1
  H  H439  1  1.411900  0.150600  0.839100  1
  H  H440  1  1.312400  0.114400  0.554900  1
  H  H441  1  1.401300  0.133300  0.595800  1
  H  H442  1  1.372100  0.051900  0.619200  1
  H  H443  1  1.369200  0.284600  0.545600  1
  H  H444  1  1.326200  0.358300  0.560900  1
  H  H445  1  1.428600  0.320100  0.814200  1
  H  H446  1  1.485700  0.291500  0.763200  1
  H  H447  1  1.457800  0.379200  0.751700  1
  H  H448  1  1.198000  0.427000  0.821600  1
  H  H449  1  1.202800  0.349500  0.882700  1
  H  H450  1  1.278700  0.395600  0.893700  1
  H  H451  1  1.492000  0.043500  0.868600  1
  H  H452  1  1.405600  0.015200  0.822000  1
  H  H453  1  1.456000  0.019700  0.755000  1
  H  H454  1  1.424400  0.364400  0.497700  1
  H  H455  1  1.411900  0.431700  0.564900  1
  H  H456  1  1.477800  0.369600  0.611400  1
  S  S457  1  1.043000  0.545600  0.908400  1
  S  S458  1  0.990500  -0.208900  0.874900  1
  S  S459  1  0.957000  1.045600  0.591600  1
  S  S460  1  1.009500  0.291100  0.625100  1
  S  S461  1  0.957000  -0.545600  1.091600  1
  S  S462  1  1.009500  0.208900  1.125100  1
  S  S463  1  1.043000  -0.045600  0.408400  1
  S  S464  1  0.990500  0.708900  0.374900  1
  Si  Si465  1  0.696800  0.189300  0.610600  1.0
  Si  Si466  1  1.312800  0.265900  1.185200  1
  Si  Si467  1  1.303200  0.689300  0.889400  1.0
  Si  Si468  1  0.687200  0.765900  0.314800  1
  Si  Si469  1  1.303200  -0.189300  1.389400  1.0
  Si  Si470  1  0.687200  -0.265900  0.814800  1
  Si  Si471  1  0.696800  0.310700  0.110600  1.0
  Si  Si472  1  1.312800  0.234100  0.685200  1
