# generated using pymatgen
data_SiH33C26
_symmetry_space_group_name_H-M   'P 1'
_cell_length_a   15.91510000
_cell_length_b   10.28580000
_cell_length_c   27.03060000
_cell_angle_alpha   90.00000000
_cell_angle_beta   90.00000000
_cell_angle_gamma   90.00000000
_symmetry_Int_Tables_number   1
_chemical_formula_structural   SiH33C26
_chemical_formula_sum   'Si8 H264 C208'
_cell_volume   4424.89666645
_cell_formula_units_Z   8
loop_
 _symmetry_equiv_pos_site_id
 _symmetry_equiv_pos_as_xyz
  1  'x, y, z'
loop_
 _atom_site_type_symbol
 _atom_site_label
 _atom_site_symmetry_multiplicity
 _atom_site_fract_x
 _atom_site_fract_y
 _atom_site_fract_z
 _atom_site_occupancy
  C  C1  1  0.285910  0.187200  0.318480  1
  C  C2  1  0.137600  0.104500  0.384020  1
  C  C3  1  0.306820  -0.048800  0.382860  1
  C  C4  1  0.189470  -0.050100  0.291730  1
  C  C5  1  0.320140  0.280500  0.300360  1
  C  C6  1  0.151480  0.209300  0.424330  1
  C  C7  1  0.347020  0.026000  0.425770  1
  C  C8  1  0.267780  -0.176700  0.401820  1
  C  C9  1  0.261210  -0.116600  0.263530  1
  C  C10  1  0.135770  0.030700  0.256020  1
  C  C11  1  0.359430  0.395300  0.280470  1
  C  C12  1  0.081750  0.207700  0.463160  1
  C  C13  1  0.159200  0.345900  0.403390  1
  C  C14  1  0.361280  0.417000  0.228670  1
  C  C15  1  0.394320  0.487700  0.313780  1
  C  C16  1  0.098210  0.306900  0.504270  1
  C  C17  1  0.176040  0.446800  0.443320  1
  C  C18  1  0.325960  0.327600  0.194940  1
  C  C19  1  0.399670  0.533700  0.209410  1
  C  C20  1  0.432540  0.604700  0.294640  1
  C  C21  1  0.392900  0.469700  0.365430  1
  C  C22  1  0.108830  0.443600  0.483110  1
  C  C23  1  0.327100  0.349100  0.144380  1
  C  C24  1  0.402300  0.552300  0.158090  1
  C  C25  1  0.433290  0.626400  0.242610  1
  C  C26  1  0.469040  0.693800  0.327830  1
  C  C27  1  0.427600  0.558000  0.397790  1
  C  C28  1  0.288730  0.262100  0.109700  1
  C  C29  1  0.367000  0.464200  0.125080  1
  C  C30  1  0.470660  0.744000  0.223650  1
  C  C31  1  0.468910  0.673000  0.378360  1
  C  C32  1  0.425550  0.541400  0.450620  1
  C  C33  1  0.289840  0.286900  0.060410  1
  C  C34  1  0.367500  0.485400  0.073130  1
  C  C35  1  0.502660  0.841900  0.208040  1
  C  C36  1  0.507750  0.761300  0.412290  1
  C  C37  1  0.462410  0.628600  0.481170  1
  C  C38  1  0.330100  0.399700  0.041680  1
  C  C39  1  0.505200  0.739700  0.461740  1
  C  C40  1  0.661490  0.919400  0.154600  1
  C  C41  1  0.504900  1.104500  0.153520  1
  C  C42  1  0.602590  1.056200  0.250800  1
  C  C43  1  0.658610  0.775900  0.139230  1
  C  C44  1  0.480610  1.055700  0.102140  1
  C  C45  1  0.551480  1.234500  0.148720  1
  C  C46  1  0.526750  1.110500  0.279080  1
  C  C47  1  0.652890  0.959300  0.282050  1
  C  C48  1  0.596140  0.752200  0.097460  1
  C  C49  1  0.745650  0.725400  0.124350  1
  C  C50  1  0.593130  0.609400  0.081870  1
  C  C51  1  0.742350  0.582200  0.109550  1
  C  C52  1  0.679940  0.559700  0.067960  1
  C  C53  1  0.714090  0.812800  -0.181520  1
  C  C54  1  0.862400  0.895500  -0.115980  1
  C  C55  1  0.693180  1.048800  -0.117140  1
  C  C56  1  0.810530  1.050100  -0.208270  1
  C  C57  1  0.679860  0.719500  -0.199640  1
  C  C58  1  0.848520  0.790700  -0.075670  1
  C  C59  1  0.652980  0.974000  -0.074230  1
  C  C60  1  0.732220  1.176700  -0.098180  1
  C  C61  1  0.738790  1.116600  -0.236470  1
  C  C62  1  0.864230  0.969300  -0.243980  1
  C  C63  1  0.640570  0.604700  -0.219530  1
  C  C64  1  0.918250  0.792300  -0.036840  1
  C  C65  1  0.840800  0.654100  -0.096610  1
  C  C66  1  0.638720  0.583000  -0.271330  1
  C  C67  1  0.605680  0.512300  -0.186220  1
  C  C68  1  0.901790  0.693100  0.004270  1
  C  C69  1  0.823960  0.553200  -0.056680  1
  C  C70  1  0.674040  0.672400  -0.305060  1
  C  C71  1  0.600330  0.466300  -0.290590  1
  C  C72  1  0.567460  0.395300  -0.205360  1
  C  C73  1  0.607100  0.530300  -0.134570  1
  C  C74  1  0.891170  0.556400  -0.016890  1
  C  C75  1  0.672900  0.650900  -0.355620  1
  C  C76  1  0.597700  0.447700  -0.341910  1
  C  C77  1  0.566710  0.373600  -0.257390  1
  C  C78  1  0.530960  0.306200  -0.172170  1
  C  C79  1  0.572400  0.442000  -0.102210  1
  C  C80  1  0.711270  0.737900  -0.390300  1
  C  C81  1  0.633000  0.535800  -0.374920  1
  C  C82  1  0.529340  0.256000  -0.276350  1
  C  C83  1  0.531090  0.327000  -0.121640  1
  C  C84  1  0.574450  0.458600  -0.049380  1
  C  C85  1  0.710160  0.713100  -0.439590  1
  C  C86  1  0.632500  0.514600  -0.426870  1
  C  C87  1  0.497340  0.158100  -0.291960  1
  C  C88  1  0.492250  0.238700  -0.087710  1
  C  C89  1  0.537590  0.371400  -0.018830  1
  C  C90  1  0.669900  0.600300  -0.458320  1
  C  C91  1  0.494800  0.260300  -0.038260  1
  C  C92  1  0.338510  0.080600  -0.345400  1
  C  C93  1  0.495100  -0.104500  -0.346480  1
  C  C94  1  0.397410  -0.056200  -0.249200  1
  C  C95  1  0.341390  0.224100  -0.360770  1
  C  C96  1  0.519390  -0.055700  -0.397860  1
  C  C97  1  0.448520  -0.234500  -0.351280  1
  C  C98  1  0.473250  -0.110500  -0.220920  1
  C  C99  1  0.347110  0.040700  -0.217950  1
  C  C100  1  0.403860  0.247800  -0.402540  1
  C  C101  1  0.254350  0.274600  -0.375650  1
  C  C102  1  0.406870  0.390600  -0.418130  1
  C  C103  1  0.257650  0.417800  -0.390450  1
  C  C104  1  0.320060  0.440300  -0.432040  1
  C  C105  1  0.214090  0.687200  -0.181520  1
  C  C106  1  0.362400  0.604500  -0.115980  1
  C  C107  1  0.193180  0.451200  -0.117140  1
  C  C108  1  0.310530  0.449900  -0.208270  1
  C  C109  1  0.179860  0.780500  -0.199640  1
  C  C110  1  0.348520  0.709300  -0.075670  1
  C  C111  1  0.152980  0.526000  -0.074230  1
  C  C112  1  0.232220  0.323300  -0.098180  1
  C  C113  1  0.238790  0.383400  -0.236470  1
  C  C114  1  0.364230  0.530700  -0.243980  1
  C  C115  1  0.140570  0.895300  -0.219530  1
  C  C116  1  0.418250  0.707700  -0.036840  1
  C  C117  1  0.340800  0.845900  -0.096610  1
  C  C118  1  0.138720  0.917000  -0.271330  1
  C  C119  1  0.105680  0.987700  -0.186220  1
  C  C120  1  0.401790  0.806900  0.004270  1
  C  C121  1  0.323960  0.946800  -0.056680  1
  C  C122  1  0.174040  0.827600  -0.305060  1
  C  C123  1  0.100330  1.033700  -0.290590  1
  C  C124  1  0.067460  1.104700  -0.205360  1
  C  C125  1  0.107100  0.969700  -0.134570  1
  C  C126  1  0.391170  0.943600  -0.016890  1
  C  C127  1  0.172900  0.849100  -0.355620  1
  C  C128  1  0.097700  1.052300  -0.341910  1
  C  C129  1  0.066710  1.126400  -0.257390  1
  C  C130  1  0.030960  1.193800  -0.172170  1
  C  C131  1  0.072400  1.058000  -0.102210  1
  C  C132  1  0.211270  0.762100  -0.390300  1
  C  C133  1  0.133000  0.964200  -0.374920  1
  C  C134  1  0.029340  1.244000  -0.276350  1
  C  C135  1  0.031090  1.173000  -0.121640  1
  C  C136  1  0.074450  1.041400  -0.049380  1
  C  C137  1  0.210160  0.786900  -0.439590  1
  C  C138  1  0.132500  0.985400  -0.426870  1
  C  C139  1  -0.002660  1.341900  -0.291960  1
  C  C140  1  -0.007750  1.261300  -0.087710  1
  C  C141  1  0.037590  1.128600  -0.018830  1
  C  C142  1  0.169900  0.899700  -0.458320  1
  C  C143  1  -0.005200  1.239700  -0.038260  1
  C  C144  1  -0.161490  1.419400  -0.345400  1
  C  C145  1  -0.004900  1.604500  -0.346480  1
  C  C146  1  -0.102590  1.556200  -0.249200  1
  C  C147  1  -0.158610  1.275900  -0.360770  1
  C  C148  1  0.019390  1.555700  -0.397860  1
  C  C149  1  -0.051480  1.734500  -0.351280  1
  C  C150  1  -0.026750  1.610500  -0.220920  1
  C  C151  1  -0.152890  1.459300  -0.217950  1
  C  C152  1  -0.096140  1.252200  -0.402540  1
  C  C153  1  -0.245650  1.225400  -0.375650  1
  C  C154  1  -0.093130  1.109400  -0.418130  1
  C  C155  1  -0.242350  1.082200  -0.390450  1
  C  C156  1  -0.179940  1.059700  -0.432040  1
  C  C157  1  -0.214090  1.312800  0.318480  1
  C  C158  1  -0.362400  1.395500  0.384020  1
  C  C159  1  -0.193180  1.548800  0.382860  1
  C  C160  1  -0.310530  1.550100  0.291730  1
  C  C161  1  -0.179860  1.219500  0.300360  1
  C  C162  1  -0.348520  1.290700  0.424330  1
  C  C163  1  -0.152980  1.474000  0.425770  1
  C  C164  1  -0.232220  1.676700  0.401820  1
  C  C165  1  -0.238790  1.616600  0.263530  1
  C  C166  1  -0.364230  1.469300  0.256020  1
  C  C167  1  -0.140570  1.104700  0.280470  1
  C  C168  1  -0.418250  1.292300  0.463160  1
  C  C169  1  -0.340800  1.154100  0.403390  1
  C  C170  1  -0.138720  1.083000  0.228670  1
  C  C171  1  -0.105680  1.012300  0.313780  1
  C  C172  1  -0.401790  1.193100  0.504270  1
  C  C173  1  -0.323960  1.053200  0.443320  1
  C  C174  1  -0.174040  1.172400  0.194940  1
  C  C175  1  -0.100330  0.966300  0.209410  1
  C  C176  1  -0.067460  0.895300  0.294640  1
  C  C177  1  -0.107100  1.030300  0.365430  1
  C  C178  1  -0.391170  1.056400  0.483110  1
  C  C179  1  -0.172900  1.150900  0.144380  1
  C  C180  1  -0.097700  0.947700  0.158090  1
  C  C181  1  -0.066710  0.873600  0.242610  1
  C  C182  1  -0.030960  0.806200  0.327830  1
  C  C183  1  -0.072400  0.942000  0.397790  1
  C  C184  1  -0.211270  1.237900  0.109700  1
  C  C185  1  -0.133000  1.035800  0.125080  1
  C  C186  1  -0.029340  0.756000  0.223650  1
  C  C187  1  -0.031090  0.827000  0.378360  1
  C  C188  1  -0.074450  0.958600  0.450620  1
  C  C189  1  -0.210160  1.213100  0.060410  1
  C  C190  1  -0.132500  1.014600  0.073130  1
  C  C191  1  0.002660  0.658100  0.208040  1
  C  C192  1  0.007750  0.738700  0.412290  1
  C  C193  1  -0.037590  0.871400  0.481170  1
  C  C194  1  -0.169900  1.100300  0.041680  1
  C  C195  1  0.005200  0.760300  0.461740  1
  C  C196  1  0.161490  0.580600  0.154600  1
  C  C197  1  0.004900  0.395500  0.153520  1
  C  C198  1  0.102590  0.443800  0.250800  1
  C  C199  1  0.158610  0.724100  0.139230  1
  C  C200  1  -0.019390  0.444300  0.102140  1
  C  C201  1  0.051480  0.265500  0.148720  1
  C  C202  1  0.026750  0.389500  0.279080  1
  C  C203  1  0.152890  0.540700  0.282050  1
  C  C204  1  0.096140  0.747800  0.097460  1
  C  C205  1  0.245650  0.774600  0.124350  1
  C  C206  1  0.093130  0.890600  0.081870  1
  C  C207  1  0.242350  0.917800  0.109550  1
  C  C208  1  0.179940  0.940300  0.067960  1
  H  H209  1  0.094200  0.137800  0.361100  1
  H  H210  1  0.113600  0.026900  0.400500  1
  H  H211  1  0.353400  -0.073600  0.359900  1
  H  H212  1  0.152700  -0.120300  0.305400  1
  H  H213  1  0.205400  0.188500  0.441600  1
  H  H214  1  0.304700  0.042200  0.451400  1
  H  H215  1  0.369000  0.109100  0.413600  1
  H  H216  1  0.393100  -0.025400  0.439700  1
  H  H217  1  0.308800  -0.222900  0.422300  1
  H  H218  1  0.251900  -0.231200  0.373600  1
  H  H219  1  0.217700  -0.157100  0.421600  1
  H  H220  1  0.238100  -0.165200  0.235500  1
  H  H221  1  0.290800  -0.176400  0.285700  1
  H  H222  1  0.300500  -0.050600  0.251400  1
  H  H223  1  0.169500  0.102200  0.242600  1
  H  H224  1  0.087200  0.066200  0.273800  1
  H  H225  1  0.116200  -0.024600  0.228800  1
  H  H226  1  0.077800  0.119600  0.477800  1
  H  H227  1  0.027400  0.227500  0.447100  1
  H  H228  1  0.106600  0.368600  0.385900  1
  H  H229  1  0.205500  0.347900  0.379000  1
  H  H230  1  0.050600  0.306300  0.527900  1
  H  H231  1  0.149700  0.282200  0.522600  1
  H  H232  1  0.231600  0.429900  0.458500  1
  H  H233  1  0.177600  0.534400  0.428100  1
  H  H234  1  0.300700  0.250500  0.207300  1
  H  H235  1  0.367000  0.393800  0.378400  1
  H  H236  1  0.054800  0.473200  0.468900  1
  H  H237  1  0.124400  0.504200  0.510100  1
  H  H238  1  0.429200  0.627700  0.145400  1
  H  H239  1  0.494500  0.770400  0.315100  1
  H  H240  1  0.262000  0.185600  0.121400  1
  H  H241  1  0.397800  0.468000  0.464300  1
  H  H242  1  0.263400  0.228100  0.038200  1
  H  H243  1  0.394300  0.560600  0.060200  1
  H  H244  1  0.535700  0.836200  0.400000  1
  H  H245  1  0.459800  0.615800  0.515900  1
  H  H246  1  0.331000  0.415500  0.007100  1
  H  H247  1  0.532000  0.798800  0.483600  1
  H  H248  1  0.667900  0.972600  0.124300  1
  H  H249  1  0.712400  0.933000  0.175000  1
  H  H250  1  0.451700  1.121200  0.172200  1
  H  H251  1  0.640600  1.130900  0.243100  1
  H  H252  1  0.639500  0.724400  0.168500  1
  H  H253  1  0.444300  1.119900  0.086000  1
  H  H254  1  0.450500  0.973000  0.105200  1
  H  H255  1  0.531500  1.042900  0.082300  1
  H  H256  1  0.606500  1.219800  0.133500  1
  H  H257  1  0.559100  1.272800  0.181600  1
  H  H258  1  0.518600  1.293900  0.128000  1
  H  H259  1  0.488400  1.039400  0.287500  1
  H  H260  1  0.497400  1.174100  0.258300  1
  H  H261  1  0.546100  1.152900  0.309500  1
  H  H262  1  0.671000  1.001400  0.312800  1
  H  H263  1  0.702300  0.930400  0.263400  1
  H  H264  1  0.617500  0.884100  0.290000  1
  H  H265  1  0.612000  0.806000  0.068600  1
  H  H266  1  0.539500  0.779700  0.108400  1
  H  H267  1  0.767200  0.777300  0.096200  1
  H  H268  1  0.785000  0.736200  0.152400  1
  H  H269  1  0.570500  0.556500  0.109400  1
  H  H270  1  0.554900  0.599700  0.053200  1
  H  H271  1  0.798900  0.553700  0.098800  1
  H  H272  1  0.726000  0.529300  0.138600  1
  H  H273  1  0.676800  0.465500  0.060600  1
  H  H274  1  0.699600  0.604900  0.037800  1
  H  H275  1  0.905800  0.862200  -0.138900  1
  H  H276  1  0.886400  0.973100  -0.099500  1
  H  H277  1  0.646600  1.073600  -0.140100  1
  H  H278  1  0.847300  1.120300  -0.194600  1
  H  H279  1  0.794600  0.811500  -0.058400  1
  H  H280  1  0.695300  0.957800  -0.048600  1
  H  H281  1  0.631000  0.890900  -0.086400  1
  H  H282  1  0.606900  1.025400  -0.060300  1
  H  H283  1  0.691200  1.222900  -0.077700  1
  H  H284  1  0.748100  1.231200  -0.126400  1
  H  H285  1  0.782300  1.157100  -0.078400  1
  H  H286  1  0.761900  1.165200  -0.264500  1
  H  H287  1  0.709200  1.176400  -0.214300  1
  H  H288  1  0.699500  1.050600  -0.248600  1
  H  H289  1  0.830500  0.897800  -0.257400  1
  H  H290  1  0.912800  0.933800  -0.226200  1
  H  H291  1  0.883800  1.024600  -0.271200  1
  H  H292  1  0.922200  0.880400  -0.022200  1
  H  H293  1  0.972600  0.772500  -0.052900  1
  H  H294  1  0.893400  0.631400  -0.114100  1
  H  H295  1  0.794500  0.652100  -0.121000  1
  H  H296  1  0.949400  0.693700  0.027900  1
  H  H297  1  0.850300  0.717800  0.022600  1
  H  H298  1  0.768400  0.570100  -0.041500  1
  H  H299  1  0.822400  0.465600  -0.071900  1
  H  H300  1  0.699300  0.749500  -0.292700  1
  H  H301  1  0.633000  0.606200  -0.121600  1
  H  H302  1  0.945200  0.526800  -0.031100  1
  H  H303  1  0.875600  0.495800  0.010100  1
  H  H304  1  0.570800  0.372300  -0.354600  1
  H  H305  1  0.505500  0.229600  -0.184900  1
  H  H306  1  0.738000  0.814400  -0.378600  1
  H  H307  1  0.602200  0.532000  -0.035700  1
  H  H308  1  0.736600  0.771900  -0.461800  1
  H  H309  1  0.605700  0.439400  -0.439800  1
  H  H310  1  0.464300  0.163800  -0.100000  1
  H  H311  1  0.540200  0.384200  0.015900  1
  H  H312  1  0.669000  0.584500  -0.492900  1
  H  H313  1  0.468000  0.201200  -0.016400  1
  H  H314  1  0.332100  0.027400  -0.375700  1
  H  H315  1  0.287600  0.067000  -0.325000  1
  H  H316  1  0.548300  -0.121200  -0.327800  1
  H  H317  1  0.359400  -0.130900  -0.256900  1
  H  H318  1  0.360500  0.275600  -0.331500  1
  H  H319  1  0.555700  -0.119900  -0.414000  1
  H  H320  1  0.549500  0.027000  -0.394800  1
  H  H321  1  0.468500  -0.042900  -0.417700  1
  H  H322  1  0.393500  -0.219800  -0.366500  1
  H  H323  1  0.440900  -0.272800  -0.318400  1
  H  H324  1  0.481400  -0.293900  -0.372000  1
  H  H325  1  0.511600  -0.039400  -0.212500  1
  H  H326  1  0.502600  -0.174100  -0.241700  1
  H  H327  1  0.453900  -0.152900  -0.190500  1
  H  H328  1  0.329000  -0.001400  -0.187200  1
  H  H329  1  0.297700  0.069600  -0.236600  1
  H  H330  1  0.382500  0.115900  -0.210000  1
  H  H331  1  0.388000  0.194000  -0.431400  1
  H  H332  1  0.460500  0.220300  -0.391600  1
  H  H333  1  0.232800  0.222700  -0.403800  1
  H  H334  1  0.215000  0.263800  -0.347600  1
  H  H335  1  0.429500  0.443500  -0.390600  1
  H  H336  1  0.445100  0.400300  -0.446800  1
  H  H337  1  0.201100  0.446300  -0.401200  1
  H  H338  1  0.274000  0.470700  -0.361400  1
  H  H339  1  0.323200  0.534500  -0.439400  1
  H  H340  1  0.300400  0.395100  -0.462200  1
  H  H341  1  0.405800  0.637800  -0.138900  1
  H  H342  1  0.386400  0.526900  -0.099500  1
  H  H343  1  0.146600  0.426400  -0.140100  1
  H  H344  1  0.347300  0.379700  -0.194600  1
  H  H345  1  0.294600  0.688500  -0.058400  1
  H  H346  1  0.195300  0.542200  -0.048600  1
  H  H347  1  0.131000  0.609100  -0.086400  1
  H  H348  1  0.106900  0.474600  -0.060300  1
  H  H349  1  0.191200  0.277100  -0.077700  1
  H  H350  1  0.248100  0.268800  -0.126400  1
  H  H351  1  0.282300  0.342900  -0.078400  1
  H  H352  1  0.261900  0.334800  -0.264500  1
  H  H353  1  0.209200  0.323600  -0.214300  1
  H  H354  1  0.199500  0.449400  -0.248600  1
  H  H355  1  0.330500  0.602200  -0.257400  1
  H  H356  1  0.412800  0.566200  -0.226200  1
  H  H357  1  0.383800  0.475400  -0.271200  1
  H  H358  1  0.422200  0.619600  -0.022200  1
  H  H359  1  0.472600  0.727500  -0.052900  1
  H  H360  1  0.393400  0.868600  -0.114100  1
  H  H361  1  0.294500  0.847900  -0.121000  1
  H  H362  1  0.449400  0.806300  0.027900  1
  H  H363  1  0.350300  0.782200  0.022600  1
  H  H364  1  0.268400  0.929900  -0.041500  1
  H  H365  1  0.322400  1.034400  -0.071900  1
  H  H366  1  0.199300  0.750500  -0.292700  1
  H  H367  1  0.133000  0.893800  -0.121600  1
  H  H368  1  0.445200  0.973200  -0.031100  1
  H  H369  1  0.375600  1.004200  0.010100  1
  H  H370  1  0.070800  1.127700  -0.354600  1
  H  H371  1  0.005500  1.270400  -0.184900  1
  H  H372  1  0.238000  0.685600  -0.378600  1
  H  H373  1  0.102200  0.968000  -0.035700  1
  H  H374  1  0.236600  0.728100  -0.461800  1
  H  H375  1  0.105700  1.060600  -0.439800  1
  H  H376  1  -0.035700  1.336200  -0.100000  1
  H  H377  1  0.040200  1.115800  0.015900  1
  H  H378  1  0.169000  0.915500  -0.492900  1
  H  H379  1  -0.032000  1.298800  -0.016400  1
  H  H380  1  -0.167900  1.472600  -0.375700  1
  H  H381  1  -0.212400  1.433000  -0.325000  1
  H  H382  1  0.048300  1.621200  -0.327800  1
  H  H383  1  -0.140600  1.630900  -0.256900  1
  H  H384  1  -0.139500  1.224400  -0.331500  1
  H  H385  1  0.055700  1.619900  -0.414000  1
  H  H386  1  0.049500  1.473000  -0.394800  1
  H  H387  1  -0.031500  1.542900  -0.417700  1
  H  H388  1  -0.106500  1.719800  -0.366500  1
  H  H389  1  -0.059100  1.772800  -0.318400  1
  H  H390  1  -0.018600  1.793900  -0.372000  1
  H  H391  1  0.011600  1.539400  -0.212500  1
  H  H392  1  0.002600  1.674100  -0.241700  1
  H  H393  1  -0.046100  1.652900  -0.190500  1
  H  H394  1  -0.171000  1.501400  -0.187200  1
  H  H395  1  -0.202300  1.430400  -0.236600  1
  H  H396  1  -0.117500  1.384100  -0.210000  1
  H  H397  1  -0.112000  1.306000  -0.431400  1
  H  H398  1  -0.039500  1.279700  -0.391600  1
  H  H399  1  -0.267200  1.277300  -0.403800  1
  H  H400  1  -0.285000  1.236200  -0.347600  1
  H  H401  1  -0.070500  1.056500  -0.390600  1
  H  H402  1  -0.054900  1.099700  -0.446800  1
  H  H403  1  -0.298900  1.053700  -0.401200  1
  H  H404  1  -0.226000  1.029300  -0.361400  1
  H  H405  1  -0.176800  0.965500  -0.439400  1
  H  H406  1  -0.199600  1.104900  -0.462200  1
  H  H407  1  -0.405800  1.362200  0.361100  1
  H  H408  1  -0.386400  1.473100  0.400500  1
  H  H409  1  -0.146600  1.573600  0.359900  1
  H  H410  1  -0.347300  1.620300  0.305400  1
  H  H411  1  -0.294600  1.311500  0.441600  1
  H  H412  1  -0.195300  1.457800  0.451400  1
  H  H413  1  -0.131000  1.390900  0.413600  1
  H  H414  1  -0.106900  1.525400  0.439700  1
  H  H415  1  -0.191200  1.722900  0.422300  1
  H  H416  1  -0.248100  1.731200  0.373600  1
  H  H417  1  -0.282300  1.657100  0.421600  1
  H  H418  1  -0.261900  1.665200  0.235500  1
  H  H419  1  -0.209200  1.676400  0.285700  1
  H  H420  1  -0.199500  1.550600  0.251400  1
  H  H421  1  -0.330500  1.397800  0.242600  1
  H  H422  1  -0.412800  1.433800  0.273800  1
  H  H423  1  -0.383800  1.524600  0.228800  1
  H  H424  1  -0.422200  1.380400  0.477800  1
  H  H425  1  -0.472600  1.272500  0.447100  1
  H  H426  1  -0.393400  1.131400  0.385900  1
  H  H427  1  -0.294500  1.152100  0.379000  1
  H  H428  1  -0.449400  1.193700  0.527900  1
  H  H429  1  -0.350300  1.217800  0.522600  1
  H  H430  1  -0.268400  1.070100  0.458500  1
  H  H431  1  -0.322400  0.965600  0.428100  1
  H  H432  1  -0.199300  1.249500  0.207300  1
  H  H433  1  -0.133000  1.106200  0.378400  1
  H  H434  1  -0.445200  1.026800  0.468900  1
  H  H435  1  -0.375600  0.995800  0.510100  1
  H  H436  1  -0.070800  0.872300  0.145400  1
  H  H437  1  -0.005500  0.729600  0.315100  1
  H  H438  1  -0.238000  1.314400  0.121400  1
  H  H439  1  -0.102200  1.032000  0.464300  1
  H  H440  1  -0.236600  1.271900  0.038200  1
  H  H441  1  -0.105700  0.939400  0.060200  1
  H  H442  1  0.035700  0.663800  0.400000  1
  H  H443  1  -0.040200  0.884200  0.515900  1
  H  H444  1  -0.169000  1.084500  0.007100  1
  H  H445  1  0.032000  0.701200  0.483600  1
  H  H446  1  0.167900  0.527400  0.124300  1
  H  H447  1  0.212400  0.567000  0.175000  1
  H  H448  1  -0.048300  0.378800  0.172200  1
  H  H449  1  0.140600  0.369100  0.243100  1
  H  H450  1  0.139500  0.775600  0.168500  1
  H  H451  1  -0.055700  0.380100  0.086000  1
  H  H452  1  -0.049500  0.527000  0.105200  1
  H  H453  1  0.031500  0.457100  0.082300  1
  H  H454  1  0.106500  0.280200  0.133500  1
  H  H455  1  0.059100  0.227200  0.181600  1
  H  H456  1  0.018600  0.206100  0.128000  1
  H  H457  1  -0.011600  0.460600  0.287500  1
  H  H458  1  -0.002600  0.325900  0.258300  1
  H  H459  1  0.046100  0.347100  0.309500  1
  H  H460  1  0.171000  0.498600  0.312800  1
  H  H461  1  0.202300  0.569600  0.263400  1
  H  H462  1  0.117500  0.615900  0.290000  1
  H  H463  1  0.112000  0.694000  0.068600  1
  H  H464  1  0.039500  0.720300  0.108400  1
  H  H465  1  0.267200  0.722700  0.096200  1
  H  H466  1  0.285000  0.763800  0.152400  1
  H  H467  1  0.070500  0.943500  0.109400  1
  H  H468  1  0.054900  0.900300  0.053200  1
  H  H469  1  0.298900  0.946300  0.098800  1
  H  H470  1  0.226000  0.970700  0.138600  1
  H  H471  1  0.176800  1.034500  0.060600  1
  H  H472  1  0.199600  0.895100  0.037800  1
  Si  Si473  1  0.229090  0.048280  0.345460  1.0
  Si  Si474  1  0.568270  0.983250  0.190180  1
  Si  Si475  1  0.770910  0.951720  -0.154540  1.0
  Si  Si476  1  0.431730  0.016750  -0.309820  1
  Si  Si477  1  0.270910  0.548280  -0.154540  1.0
  Si  Si478  1  -0.068270  1.483250  -0.309820  1
  Si  Si479  1  -0.270910  1.451720  0.345460  1.0
  Si  Si480  1  0.068270  0.516750  0.190180  1
