# generated using pymatgen
data_SiH31C27N2
_symmetry_space_group_name_H-M   'P 1'
_cell_length_a   15.20320000
_cell_length_b   9.62160000
_cell_length_c   17.37660000
_cell_angle_alpha   90.00000000
_cell_angle_beta   113.24300000
_cell_angle_gamma   90.00000000
_symmetry_Int_Tables_number   1
_chemical_formula_structural   SiH31C27N2
_chemical_formula_sum   'Si4 H124 C108 N8'
_cell_volume   2335.53690724
_cell_formula_units_Z   4
loop_
 _symmetry_equiv_pos_site_id
 _symmetry_equiv_pos_as_xyz
  1  'x, y, z'
loop_
 _atom_site_type_symbol
 _atom_site_label
 _atom_site_symmetry_multiplicity
 _atom_site_fract_x
 _atom_site_fract_y
 _atom_site_fract_z
 _atom_site_occupancy
  C  C1  1  0.460520  0.523940  0.255620  1
  C  C2  1  0.589330  0.621610  0.170900  1
  C  C3  1  0.371240  0.672520  0.086950  1
  C  C4  1  0.448600  0.381520  0.093840  1
  C  C5  1  0.465080  0.513900  0.326360  1
  C  C6  1  0.629580  0.737870  0.236430  1
  C  C7  1  0.376630  0.826810  0.111270  1
  C  C8  1  0.525770  0.267820  0.125700  1
  C  C9  1  0.479600  0.507060  0.412780  1
  C  C10  1  0.691440  0.677970  0.321960  1
  C  C11  1  0.687760  0.842000  0.209780  1
  C  C12  1  0.363700  0.849080  0.192800  1
  C  C13  1  0.301060  0.911550  0.042120  1
  C  C14  1  0.506920  0.154330  0.059970  1
  C  C15  1  0.531630  0.204940  0.208090  1
  C  C16  1  0.457360  0.384640  0.446230  1
  C  C17  1  0.521010  0.622680  0.464890  1
  C  C18  1  0.413880  0.269650  0.395440  1
  C  C19  1  0.478990  0.377320  0.535110  1
  C  C20  1  0.542640  0.615360  0.553770  1
  C  C21  1  0.542180  0.746290  0.432610  1
  C  C22  1  0.392060  0.149410  0.428220  1
  C  C23  1  0.520400  0.492940  0.587220  1
  C  C24  1  0.457820  0.253710  0.567390  1
  C  C25  1  0.586120  0.730350  0.604560  1
  C  C26  1  0.584380  0.858670  0.482780  1
  C  C27  1  0.345820  0.033490  0.376910  1
  C  C28  1  0.415620  0.141330  0.517220  1
  C  C29  1  0.534920  0.486100  0.673640  1
  C  C30  1  0.607940  0.850590  0.571780  1
  C  C31  1  0.605830  0.983480  0.449410  1
  C  C32  1  0.326000  -0.084020  0.411040  1
  C  C33  1  0.394170  0.016520  0.550590  1
  C  C34  1  0.539480  0.476060  0.744380  1
  C  C35  1  0.654180  0.966510  0.623090  1
  C  C36  1  0.648910  1.092960  0.499610  1
  C  C37  1  0.351090  -0.092960  0.500390  1
  C  C38  1  0.278730  -0.200480  0.358780  1
  C  C39  1  0.674000  1.084020  0.588960  1
  C  C40  1  0.668830  1.218610  0.463480  1
  C  C41  1  0.331170  -0.218610  0.536520  1
  C  C42  1  0.410670  0.378390  0.829100  1
  C  C43  1  0.628760  0.327480  0.913050  1
  C  C44  1  0.551400  0.618480  0.906160  1
  C  C45  1  0.721270  1.200480  0.641220  1
  C  C46  1  0.370420  0.262130  0.763570  1
  C  C47  1  0.623370  0.173190  0.888730  1
  C  C48  1  0.474230  0.732180  0.874300  1
  C  C49  1  0.308560  0.322030  0.678040  1
  C  C50  1  0.312240  0.158000  0.790220  1
  C  C51  1  0.636300  0.150920  0.807200  1
  C  C52  1  0.698940  0.088450  0.957880  1
  C  C53  1  0.493080  0.845670  0.940030  1
  C  C54  1  0.468370  0.795060  0.791910  1
  C  C55  1  0.039480  0.023940  0.244380  1
  C  C56  1  -0.089330  0.121610  0.329100  1
  C  C57  1  0.128760  0.172520  0.413050  1
  C  C58  1  0.051400  -0.118480  0.406160  1
  C  C59  1  0.034920  0.013900  0.173640  1
  C  C60  1  -0.129580  0.237870  0.263570  1
  C  C61  1  0.123370  0.326810  0.388730  1
  C  C62  1  -0.025770  -0.232180  0.374300  1
  C  C63  1  0.020400  0.007060  0.087220  1
  C  C64  1  -0.191440  0.177970  0.178040  1
  C  C65  1  -0.187760  0.342000  0.290220  1
  C  C66  1  0.136300  0.349080  0.307200  1
  C  C67  1  0.198940  0.411550  0.457880  1
  C  C68  1  -0.006920  -0.345670  0.440030  1
  C  C69  1  -0.031630  -0.295060  0.291910  1
  C  C70  1  0.042640  -0.115360  0.053770  1
  C  C71  1  -0.021010  0.122680  0.035110  1
  C  C72  1  0.086120  -0.230350  0.104560  1
  C  C73  1  0.021010  -0.122680  -0.035110  1
  C  C74  1  -0.042640  0.115360  -0.053770  1
  C  C75  1  -0.042180  0.246290  0.067390  1
  C  C76  1  0.107940  -0.350590  0.071780  1
  C  C77  1  -0.020400  -0.007060  -0.087220  1
  C  C78  1  0.042180  -0.246290  -0.067390  1
  C  C79  1  -0.086120  0.230350  -0.104560  1
  C  C80  1  -0.084380  0.358670  0.017220  1
  C  C81  1  0.154180  -0.466510  0.123090  1
  C  C82  1  0.084380  -0.358670  -0.017220  1
  C  C83  1  -0.034920  -0.013900  -0.173640  1
  C  C84  1  -0.107940  0.350590  -0.071780  1
  C  C85  1  -0.105830  0.483480  0.050590  1
  C  C86  1  0.174000  -0.584020  0.088960  1
  C  C87  1  0.105830  -0.483480  -0.050590  1
  C  C88  1  -0.039480  -0.023940  -0.244380  1
  C  C89  1  -0.154180  0.466510  -0.123090  1
  C  C90  1  -0.148910  0.592960  0.000390  1
  C  C91  1  0.148910  -0.592960  -0.000390  1
  C  C92  1  0.221270  -0.700480  0.141220  1
  C  C93  1  -0.174000  0.584020  -0.088960  1
  C  C94  1  -0.168830  0.718610  0.036520  1
  C  C95  1  0.168830  -0.718610  -0.036520  1
  C  C96  1  0.089330  -0.121610  -0.329100  1
  C  C97  1  -0.128760  -0.172520  -0.413050  1
  C  C98  1  -0.051400  0.118480  -0.406160  1
  C  C99  1  -0.221270  0.700480  -0.141220  1
  C  C100  1  0.129580  -0.237870  -0.263570  1
  C  C101  1  -0.123370  -0.326810  -0.388730  1
  C  C102  1  0.025770  0.232180  -0.374300  1
  C  C103  1  0.191440  -0.177970  -0.178040  1
  C  C104  1  0.187760  -0.342000  -0.290220  1
  C  C105  1  -0.136300  -0.349080  -0.307200  1
  C  C106  1  -0.198940  -0.411550  -0.457880  1
  C  C107  1  0.006920  0.345670  -0.440030  1
  C  C108  1  0.031630  0.295060  -0.291910  1
  H  H109  1  0.635500  0.543500  0.187500  1
  H  H110  1  0.587100  0.657200  0.116700  1
  H  H111  1  0.368500  0.667900  0.029100  1
  H  H112  1  0.309600  0.636000  0.085100  1
  H  H113  1  0.387800  0.341000  0.091700  1
  H  H114  1  0.439300  0.403700  0.035500  1
  H  H115  1  0.574500  0.788200  0.241400  1
  H  H116  1  0.441200  0.862700  0.118700  1
  H  H117  1  0.589100  0.311200  0.135500  1
  H  H118  1  0.748400  0.634200  0.319300  1
  H  H119  1  0.654700  0.608400  0.338000  1
  H  H120  1  0.711100  0.752800  0.363600  1
  H  H121  1  0.712500  0.914600  0.252500  1
  H  H122  1  0.646800  0.884200  0.156300  1
  H  H123  1  0.741400  0.794100  0.203400  1
  H  H124  1  0.300500  0.815200  0.186600  1
  H  H125  1  0.368900  0.948400  0.206300  1
  H  H126  1  0.413400  0.798000  0.238000  1
  H  H127  1  0.237400  0.873900  0.031200  1
  H  H128  1  0.313300  0.906300  -0.009100  1
  H  H129  1  0.304100  1.008700  0.059900  1
  H  H130  1  0.555700  0.081700  0.081700  1
  H  H131  1  0.509500  0.194300  0.009000  1
  H  H132  1  0.443400  0.114000  0.047000  1
  H  H133  1  0.469100  0.166800  0.200800  1
  H  H134  1  0.550100  0.277100  0.251400  1
  H  H135  1  0.579500  0.130500  0.225000  1
  H  H136  1  0.399100  0.274500  0.337000  1
  H  H137  1  0.526900  0.752600  0.374200  1
  H  H138  1  0.473100  0.247400  0.625800  1
  H  H139  1  0.600900  0.725500  0.663000  1
  H  H140  1  0.328600  0.038200  0.318100  1
  H  H141  1  0.589700  0.990300  0.390900  1
  H  H142  1  0.410300  0.009700  0.609100  1
  H  H143  1  0.671400  0.961800  0.681900  1
  H  H144  1  0.364500  0.456500  0.812500  1
  H  H145  1  0.412900  0.342800  0.883300  1
  H  H146  1  0.631500  0.332100  0.970900  1
  H  H147  1  0.690400  0.364000  0.914900  1
  H  H148  1  0.612200  0.659000  0.908300  1
  H  H149  1  0.560700  0.596300  0.964500  1
  H  H150  1  0.425500  0.211800  0.758600  1
  H  H151  1  0.558800  0.137300  0.881300  1
  H  H152  1  0.410900  0.688800  0.864500  1
  H  H153  1  0.251600  0.365800  0.680700  1
  H  H154  1  0.345300  0.391600  0.662000  1
  H  H155  1  0.288900  0.247200  0.636400  1
  H  H156  1  0.287500  0.085400  0.747500  1
  H  H157  1  0.353200  0.115800  0.843700  1
  H  H158  1  0.258600  0.205900  0.796600  1
  H  H159  1  0.699500  0.184800  0.813400  1
  H  H160  1  0.631100  0.051600  0.793700  1
  H  H161  1  0.586600  0.202000  0.762000  1
  H  H162  1  0.762600  0.126100  0.968800  1
  H  H163  1  0.686700  0.093700  1.009100  1
  H  H164  1  0.695900  -0.008700  0.940100  1
  H  H165  1  0.444300  0.918300  0.918300  1
  H  H166  1  0.490500  0.805700  0.991000  1
  H  H167  1  0.556600  0.886000  0.953000  1
  H  H168  1  0.530900  0.833200  0.799200  1
  H  H169  1  0.449900  0.722900  0.748600  1
  H  H170  1  0.420500  0.869500  0.775000  1
  H  H171  1  -0.135500  0.043500  0.312500  1
  H  H172  1  -0.087100  0.157200  0.383300  1
  H  H173  1  0.131500  0.167900  0.470900  1
  H  H174  1  0.190400  0.136000  0.414900  1
  H  H175  1  0.112200  -0.159000  0.408300  1
  H  H176  1  0.060700  -0.096300  0.464500  1
  H  H177  1  -0.074500  0.288200  0.258600  1
  H  H178  1  0.058800  0.362700  0.381300  1
  H  H179  1  -0.089100  -0.188800  0.364500  1
  H  H180  1  -0.248400  0.134200  0.180700  1
  H  H181  1  -0.154700  0.108400  0.162000  1
  H  H182  1  -0.211100  0.252800  0.136400  1
  H  H183  1  -0.212500  0.414600  0.247500  1
  H  H184  1  -0.146800  0.384200  0.343700  1
  H  H185  1  -0.241400  0.294100  0.296600  1
  H  H186  1  0.199500  0.315200  0.313400  1
  H  H187  1  0.131100  0.448400  0.293700  1
  H  H188  1  0.086600  0.298000  0.262000  1
  H  H189  1  0.262600  0.373900  0.468800  1
  H  H190  1  0.186700  0.406300  0.509100  1
  H  H191  1  0.195900  0.508700  0.440100  1
  H  H192  1  -0.055700  -0.418300  0.418300  1
  H  H193  1  -0.009500  -0.305700  0.491000  1
  H  H194  1  0.056600  -0.386000  0.453000  1
  H  H195  1  0.030900  -0.333200  0.299200  1
  H  H196  1  -0.050100  -0.222900  0.248600  1
  H  H197  1  -0.079500  -0.369500  0.275000  1
  H  H198  1  0.100900  -0.225500  0.163000  1
  H  H199  1  -0.026900  0.252600  0.125800  1
  H  H200  1  0.026900  -0.252600  -0.125800  1
  H  H201  1  -0.100900  0.225500  -0.163000  1
  H  H202  1  0.171400  -0.461800  0.181900  1
  H  H203  1  -0.089700  0.490300  0.109100  1
  H  H204  1  0.089700  -0.490300  -0.109100  1
  H  H205  1  -0.171400  0.461800  -0.181900  1
  H  H206  1  0.135500  -0.043500  -0.312500  1
  H  H207  1  0.087100  -0.157200  -0.383300  1
  H  H208  1  -0.131500  -0.167900  -0.470900  1
  H  H209  1  -0.190400  -0.136000  -0.414900  1
  H  H210  1  -0.112200  0.159000  -0.408300  1
  H  H211  1  -0.060700  0.096300  -0.464500  1
  H  H212  1  0.074500  -0.288200  -0.258600  1
  H  H213  1  -0.058800  -0.362700  -0.381300  1
  H  H214  1  0.089100  0.188800  -0.364500  1
  H  H215  1  0.248400  -0.134200  -0.180700  1
  H  H216  1  0.154700  -0.108400  -0.162000  1
  H  H217  1  0.211100  -0.252800  -0.136400  1
  H  H218  1  0.212500  -0.414600  -0.247500  1
  H  H219  1  0.146800  -0.384200  -0.343700  1
  H  H220  1  0.241400  -0.294100  -0.296600  1
  H  H221  1  -0.199500  -0.315200  -0.313400  1
  H  H222  1  -0.131100  -0.448400  -0.293700  1
  H  H223  1  -0.086600  -0.298000  -0.262000  1
  H  H224  1  -0.262600  -0.373900  -0.468800  1
  H  H225  1  -0.186700  -0.406300  -0.509100  1
  H  H226  1  -0.195900  -0.508700  -0.440100  1
  H  H227  1  0.055700  0.418300  -0.418300  1
  H  H228  1  0.009500  0.305700  -0.491000  1
  H  H229  1  -0.056600  0.386000  -0.453000  1
  H  H230  1  -0.030900  0.333200  -0.299200  1
  H  H231  1  0.050100  0.222900  -0.248600  1
  H  H232  1  0.079500  0.369500  -0.275000  1
  N  N233  1  0.240860  -0.293030  0.317870  1
  N  N234  1  0.683190  1.315640  0.432860  1
  N  N235  1  0.316810  -0.315640  0.567140  1
  N  N236  1  0.759140  1.293030  0.682130  1
  N  N237  1  0.259140  -0.793030  0.182130  1
  N  N238  1  -0.183190  0.815640  0.067140  1
  N  N239  1  0.183190  -0.815640  -0.067140  1
  N  N240  1  -0.259140  0.793030  -0.182130  1
  Si  Si241  1  0.467850  0.549700  0.152800  1.0
  Si  Si242  1  0.532150  0.450300  0.847200  1
  Si  Si243  1  0.032150  0.049700  0.347200  1.0
  Si  Si244  1  -0.032150  -0.049700  -0.347200  1
