# generated using pymatgen
data_SiH31C23S
_symmetry_space_group_name_H-M   'P 1'
_cell_length_a   29.40880000
_cell_length_b   8.57220000
_cell_length_c   20.06920000
_cell_angle_alpha   90.00000000
_cell_angle_beta   121.47730000
_cell_angle_gamma   90.00000000
_symmetry_Int_Tables_number   1
_chemical_formula_structural   SiH31C23S
_chemical_formula_sum   'Si8 H248 C184 S8'
_cell_volume   4314.90104171
_cell_formula_units_Z   8
loop_
 _symmetry_equiv_pos_site_id
 _symmetry_equiv_pos_as_xyz
  1  'x, y, z'
loop_
 _atom_site_type_symbol
 _atom_site_label
 _atom_site_symmetry_multiplicity
 _atom_site_fract_x
 _atom_site_fract_y
 _atom_site_fract_z
 _atom_site_occupancy
  C  C1  1  0.099150  0.108600  0.228700  1
  C  C2  1  0.126700  0.043000  0.392500  1
  C  C3  1  0.129800  0.383000  0.332200  1
  C  C4  1  0.215200  0.119800  0.368400  1
  C  C5  1  0.069320  0.075200  0.160900  1
  C  C6  1  0.067700  0.015200  0.357000  1
  C  C7  1  0.155800  0.102600  0.476100  1
  C  C8  1  0.166900  0.474300  0.407800  1
  C  C9  1  0.073100  0.436800  0.296800  1
  C  C10  1  0.225600  -0.049600  0.360600  1
  C  C11  1  0.232700  0.228500  0.324500  1
  C  C12  1  0.034250  0.036400  0.079890  1
  C  C13  1  0.155400  -0.008100  0.534700  1
  C  C14  1  0.062400  0.606700  0.268900  1
  C  C15  1  0.224100  0.151800  0.251700  1
  C  C16  1  -0.004220  0.146800  0.030000  1
  C  C17  1  0.039460  -0.108900  0.052370  1
  C  C18  1  -0.009720  0.293400  0.057900  1
  C  C19  1  -0.039460  0.108900  -0.052370  1
  C  C20  1  0.004220  -0.146800  -0.030000  1
  C  C21  1  0.077690  -0.219700  0.102000  1
  C  C22  1  -0.048430  0.398100  0.006900  1
  C  C23  1  -0.034250  -0.036400  -0.079890  1
  C  C24  1  -0.077690  0.219700  -0.102000  1
  C  C25  1  0.009720  -0.293400  -0.057900  1
  C  C26  1  0.081540  -0.359000  0.073400  1
  C  C27  1  -0.081540  0.359000  -0.073400  1
  C  C28  1  -0.069320  -0.075200  -0.160900  1
  C  C29  1  0.048430  -0.398100  -0.006900  1
  C  C30  1  0.113700  -0.491000  0.116800  1
  C  C31  1  -0.113700  0.491000  -0.116800  1
  C  C32  1  -0.115100  0.598600  -0.070200  1
  C  C33  1  -0.099150  -0.108600  -0.228700  1
  C  C34  1  0.115100  -0.598600  0.070200  1
  C  C35  1  -0.126700  -0.043000  -0.392500  1
  C  C36  1  -0.129800  -0.383000  -0.332200  1
  C  C37  1  -0.215200  -0.119800  -0.368400  1
  C  C38  1  -0.067700  -0.015200  -0.357000  1
  C  C39  1  -0.155800  -0.102600  -0.476100  1
  C  C40  1  -0.166900  -0.474300  -0.407800  1
  C  C41  1  -0.073100  -0.436800  -0.296800  1
  C  C42  1  -0.225600  0.049600  -0.360600  1
  C  C43  1  -0.232700  -0.228500  -0.324500  1
  C  C44  1  -0.155400  0.008100  -0.534700  1
  C  C45  1  -0.062400  -0.606700  -0.268900  1
  C  C46  1  -0.224100  -0.151800  -0.251700  1
  C  C47  1  -0.099150  0.108600  -0.728700  1
  C  C48  1  -0.126700  0.043000  -0.892500  1
  C  C49  1  -0.129800  0.383000  -0.832200  1
  C  C50  1  -0.215200  0.119800  -0.868400  1
  C  C51  1  -0.069320  0.075200  -0.660900  1
  C  C52  1  -0.067700  0.015200  -0.857000  1
  C  C53  1  -0.155800  0.102600  -0.976100  1
  C  C54  1  -0.166900  0.474300  -0.907800  1
  C  C55  1  -0.073100  0.436800  -0.796800  1
  C  C56  1  -0.225600  -0.049600  -0.860600  1
  C  C57  1  -0.232700  0.228500  -0.824500  1
  C  C58  1  -0.034250  0.036400  -0.579890  1
  C  C59  1  -0.155400  -0.008100  -1.034700  1
  C  C60  1  -0.062400  0.606700  -0.768900  1
  C  C61  1  -0.224100  0.151800  -0.751700  1
  C  C62  1  0.004220  0.146800  -0.530000  1
  C  C63  1  -0.039460  -0.108900  -0.552370  1
  C  C64  1  0.009720  0.293400  -0.557900  1
  C  C65  1  0.039460  0.108900  -0.447630  1
  C  C66  1  -0.004220  -0.146800  -0.470000  1
  C  C67  1  -0.077690  -0.219700  -0.602000  1
  C  C68  1  0.048430  0.398100  -0.506900  1
  C  C69  1  0.034250  -0.036400  -0.420110  1
  C  C70  1  0.077690  0.219700  -0.398000  1
  C  C71  1  -0.009720  -0.293400  -0.442100  1
  C  C72  1  -0.081540  -0.359000  -0.573400  1
  C  C73  1  0.081540  0.359000  -0.426600  1
  C  C74  1  0.069320  -0.075200  -0.339100  1
  C  C75  1  -0.048430  -0.398100  -0.493100  1
  C  C76  1  -0.113700  -0.491000  -0.616800  1
  C  C77  1  0.113700  0.491000  -0.383200  1
  C  C78  1  0.115100  0.598600  -0.429800  1
  C  C79  1  0.099150  -0.108600  -0.271300  1
  C  C80  1  -0.115100  -0.598600  -0.570200  1
  C  C81  1  0.126700  -0.043000  -0.107500  1
  C  C82  1  0.129800  -0.383000  -0.167800  1
  C  C83  1  0.215200  -0.119800  -0.131600  1
  C  C84  1  0.067700  -0.015200  -0.143000  1
  C  C85  1  0.155800  -0.102600  -0.023900  1
  C  C86  1  0.166900  -0.474300  -0.092200  1
  C  C87  1  0.073100  -0.436800  -0.203200  1
  C  C88  1  0.225600  0.049600  -0.139400  1
  C  C89  1  0.232700  -0.228500  -0.175500  1
  C  C90  1  0.155400  0.008100  0.034700  1
  C  C91  1  0.062400  -0.606700  -0.231100  1
  C  C92  1  0.224100  -0.151800  -0.248300  1
  C  C93  1  0.599150  -0.391400  0.228700  1
  C  C94  1  0.626700  -0.457000  0.392500  1
  C  C95  1  0.629800  -0.117000  0.332200  1
  C  C96  1  0.715200  -0.380200  0.368400  1
  C  C97  1  0.569320  -0.424800  0.160900  1
  C  C98  1  0.567700  -0.484800  0.357000  1
  C  C99  1  0.655800  -0.397400  0.476100  1
  C  C100  1  0.666900  -0.025700  0.407800  1
  C  C101  1  0.573100  -0.063200  0.296800  1
  C  C102  1  0.725600  -0.549600  0.360600  1
  C  C103  1  0.732700  -0.271500  0.324500  1
  C  C104  1  0.534250  -0.463600  0.079890  1
  C  C105  1  0.655400  -0.508100  0.534700  1
  C  C106  1  0.562400  0.106700  0.268900  1
  C  C107  1  0.724100  -0.348200  0.251700  1
  C  C108  1  0.495780  -0.353200  0.030000  1
  C  C109  1  0.539460  -0.608900  0.052370  1
  C  C110  1  0.490280  -0.206600  0.057900  1
  C  C111  1  0.460540  -0.391100  -0.052370  1
  C  C112  1  0.504220  -0.646800  -0.030000  1
  C  C113  1  0.577690  -0.719700  0.102000  1
  C  C114  1  0.451570  -0.101900  0.006900  1
  C  C115  1  0.465750  -0.536400  -0.079890  1
  C  C116  1  0.422310  -0.280300  -0.102000  1
  C  C117  1  0.509720  -0.793400  -0.057900  1
  C  C118  1  0.581540  -0.859000  0.073400  1
  C  C119  1  0.418460  -0.141000  -0.073400  1
  C  C120  1  0.430680  -0.575200  -0.160900  1
  C  C121  1  0.548430  -0.898100  -0.006900  1
  C  C122  1  0.613700  -0.991000  0.116800  1
  C  C123  1  0.386300  -0.009000  -0.116800  1
  C  C124  1  0.384900  0.098600  -0.070200  1
  C  C125  1  0.400850  -0.608600  -0.228700  1
  C  C126  1  0.615100  -1.098600  0.070200  1
  C  C127  1  0.373300  -0.543000  -0.392500  1
  C  C128  1  0.370200  -0.883000  -0.332200  1
  C  C129  1  0.284800  -0.619800  -0.368400  1
  C  C130  1  0.432300  -0.515200  -0.357000  1
  C  C131  1  0.344200  -0.602600  -0.476100  1
  C  C132  1  0.333100  -0.974300  -0.407800  1
  C  C133  1  0.426900  -0.936800  -0.296800  1
  C  C134  1  0.274400  -0.450400  -0.360600  1
  C  C135  1  0.267300  -0.728500  -0.324500  1
  C  C136  1  0.344600  -0.491900  -0.534700  1
  C  C137  1  0.437600  -1.106700  -0.268900  1
  C  C138  1  0.275900  -0.651800  -0.251700  1
  C  C139  1  -0.599150  -0.391400  -0.728700  1
  C  C140  1  -0.626700  -0.457000  -0.892500  1
  C  C141  1  -0.629800  -0.117000  -0.832200  1
  C  C142  1  -0.715200  -0.380200  -0.868400  1
  C  C143  1  -0.569320  -0.424800  -0.660900  1
  C  C144  1  -0.567700  -0.484800  -0.857000  1
  C  C145  1  -0.655800  -0.397400  -0.976100  1
  C  C146  1  -0.666900  -0.025700  -0.907800  1
  C  C147  1  -0.573100  -0.063200  -0.796800  1
  C  C148  1  -0.725600  -0.549600  -0.860600  1
  C  C149  1  -0.732700  -0.271500  -0.824500  1
  C  C150  1  -0.534250  -0.463600  -0.579890  1
  C  C151  1  -0.655400  -0.508100  -1.034700  1
  C  C152  1  -0.562400  0.106700  -0.768900  1
  C  C153  1  -0.724100  -0.348200  -0.751700  1
  C  C154  1  -0.495780  -0.353200  -0.530000  1
  C  C155  1  -0.539460  -0.608900  -0.552370  1
  C  C156  1  -0.490280  -0.206600  -0.557900  1
  C  C157  1  -0.460540  -0.391100  -0.447630  1
  C  C158  1  -0.504220  -0.646800  -0.470000  1
  C  C159  1  -0.577690  -0.719700  -0.602000  1
  C  C160  1  -0.451570  -0.101900  -0.506900  1
  C  C161  1  -0.465750  -0.536400  -0.420110  1
  C  C162  1  -0.422310  -0.280300  -0.398000  1
  C  C163  1  -0.509720  -0.793400  -0.442100  1
  C  C164  1  -0.581540  -0.859000  -0.573400  1
  C  C165  1  -0.418460  -0.141000  -0.426600  1
  C  C166  1  -0.430680  -0.575200  -0.339100  1
  C  C167  1  -0.548430  -0.898100  -0.493100  1
  C  C168  1  -0.613700  -0.991000  -0.616800  1
  C  C169  1  -0.386300  -0.009000  -0.383200  1
  C  C170  1  -0.384900  0.098600  -0.429800  1
  C  C171  1  -0.400850  -0.608600  -0.271300  1
  C  C172  1  -0.615100  -1.098600  -0.570200  1
  C  C173  1  -0.373300  -0.543000  -0.107500  1
  C  C174  1  -0.370200  -0.883000  -0.167800  1
  C  C175  1  -0.284800  -0.619800  -0.131600  1
  C  C176  1  -0.432300  -0.515200  -0.143000  1
  C  C177  1  -0.344200  -0.602600  -0.023900  1
  C  C178  1  -0.333100  -0.974300  -0.092200  1
  C  C179  1  -0.426900  -0.936800  -0.203200  1
  C  C180  1  -0.274400  -0.450400  -0.139400  1
  C  C181  1  -0.267300  -0.728500  -0.175500  1
  C  C182  1  -0.344600  -0.491900  0.034700  1
  C  C183  1  -0.437600  -1.106700  -0.231100  1
  C  C184  1  -0.275900  -0.651800  -0.248300  1
  H  H185  1  0.142500  -0.061600  0.394700  1
  H  H186  1  0.139600  0.426600  0.295100  1
  H  H187  1  0.236500  0.147600  0.425100  1
  H  H188  1  0.062400  -0.064200  0.387400  1
  H  H189  1  0.051900  -0.020700  0.303000  1
  H  H190  1  0.050500  0.112700  0.357600  1
  H  H191  1  0.193300  0.124500  0.492600  1
  H  H192  1  0.139400  0.202400  0.477400  1
  H  H193  1  0.154700  0.582700  0.401700  1
  H  H194  1  0.203400  0.472000  0.418300  1
  H  H195  1  0.166200  0.426300  0.451600  1
  H  H196  1  0.062600  0.422600  0.335900  1
  H  H197  1  0.049900  0.368600  0.251700  1
  H  H198  1  0.208300  -0.115500  0.381000  1
  H  H199  1  0.264100  -0.069100  0.390300  1
  H  H200  1  0.211000  -0.074300  0.305400  1
  H  H201  1  0.211900  0.326700  0.310700  1
  H  H202  1  0.270900  0.254900  0.359000  1
  H  H203  1  0.118500  -0.033300  0.518300  1
  H  H204  1  0.173100  0.041600  0.586300  1
  H  H205  1  0.174500  -0.104000  0.537400  1
  H  H206  1  0.091400  0.672900  0.307700  1
  H  H207  1  0.028500  0.640900  0.262600  1
  H  H208  1  0.060400  0.614900  0.218800  1
  H  H209  1  0.187200  0.168200  0.209100  1
  H  H210  1  0.231100  0.039800  0.260900  1
  H  H211  1  0.248400  0.197500  0.237400  1
  H  H212  1  0.013000  0.319900  0.111400  1
  H  H213  1  0.100900  -0.196500  0.155800  1
  H  H214  1  -0.100900  0.196500  -0.155800  1
  H  H215  1  -0.013000  -0.319900  -0.111400  1
  H  H216  1  0.131700  -0.500700  0.172000  1
  H  H217  1  -0.131700  0.500700  -0.172000  1
  H  H218  1  -0.141500  0.677700  -0.088500  1
  H  H219  1  0.141500  -0.677700  0.088500  1
  H  H220  1  -0.142500  0.061600  -0.394700  1
  H  H221  1  -0.139600  -0.426600  -0.295100  1
  H  H222  1  -0.236500  -0.147600  -0.425100  1
  H  H223  1  -0.062400  0.064200  -0.387400  1
  H  H224  1  -0.051900  0.020700  -0.303000  1
  H  H225  1  -0.050500  -0.112700  -0.357600  1
  H  H226  1  -0.193300  -0.124500  -0.492600  1
  H  H227  1  -0.139400  -0.202400  -0.477400  1
  H  H228  1  -0.154700  -0.582700  -0.401700  1
  H  H229  1  -0.203400  -0.472000  -0.418300  1
  H  H230  1  -0.166200  -0.426300  -0.451600  1
  H  H231  1  -0.062600  -0.422600  -0.335900  1
  H  H232  1  -0.049900  -0.368600  -0.251700  1
  H  H233  1  -0.208300  0.115500  -0.381000  1
  H  H234  1  -0.264100  0.069100  -0.390300  1
  H  H235  1  -0.211000  0.074300  -0.305400  1
  H  H236  1  -0.211900  -0.326700  -0.310700  1
  H  H237  1  -0.270900  -0.254900  -0.359000  1
  H  H238  1  -0.118500  0.033300  -0.518300  1
  H  H239  1  -0.173100  -0.041600  -0.586300  1
  H  H240  1  -0.174500  0.104000  -0.537400  1
  H  H241  1  -0.091400  -0.672900  -0.307700  1
  H  H242  1  -0.028500  -0.640900  -0.262600  1
  H  H243  1  -0.060400  -0.614900  -0.218800  1
  H  H244  1  -0.187200  -0.168200  -0.209100  1
  H  H245  1  -0.231100  -0.039800  -0.260900  1
  H  H246  1  -0.248400  -0.197500  -0.237400  1
  H  H247  1  -0.142500  -0.061600  -0.894700  1
  H  H248  1  -0.139600  0.426600  -0.795100  1
  H  H249  1  -0.236500  0.147600  -0.925100  1
  H  H250  1  -0.062400  -0.064200  -0.887400  1
  H  H251  1  -0.051900  -0.020700  -0.803000  1
  H  H252  1  -0.050500  0.112700  -0.857600  1
  H  H253  1  -0.193300  0.124500  -0.992600  1
  H  H254  1  -0.139400  0.202400  -0.977400  1
  H  H255  1  -0.154700  0.582700  -0.901700  1
  H  H256  1  -0.203400  0.472000  -0.918300  1
  H  H257  1  -0.166200  0.426300  -0.951600  1
  H  H258  1  -0.062600  0.422600  -0.835900  1
  H  H259  1  -0.049900  0.368600  -0.751700  1
  H  H260  1  -0.208300  -0.115500  -0.881000  1
  H  H261  1  -0.264100  -0.069100  -0.890300  1
  H  H262  1  -0.211000  -0.074300  -0.805400  1
  H  H263  1  -0.211900  0.326700  -0.810700  1
  H  H264  1  -0.270900  0.254900  -0.859000  1
  H  H265  1  -0.118500  -0.033300  -1.018300  1
  H  H266  1  -0.173100  0.041600  -1.086300  1
  H  H267  1  -0.174500  -0.104000  -1.037400  1
  H  H268  1  -0.091400  0.672900  -0.807700  1
  H  H269  1  -0.028500  0.640900  -0.762600  1
  H  H270  1  -0.060400  0.614900  -0.718800  1
  H  H271  1  -0.187200  0.168200  -0.709100  1
  H  H272  1  -0.231100  0.039800  -0.760900  1
  H  H273  1  -0.248400  0.197500  -0.737400  1
  H  H274  1  -0.013000  0.319900  -0.611400  1
  H  H275  1  -0.100900  -0.196500  -0.655800  1
  H  H276  1  0.100900  0.196500  -0.344200  1
  H  H277  1  0.013000  -0.319900  -0.388600  1
  H  H278  1  -0.131700  -0.500700  -0.672000  1
  H  H279  1  0.131700  0.500700  -0.328000  1
  H  H280  1  0.141500  0.677700  -0.411500  1
  H  H281  1  -0.141500  -0.677700  -0.588500  1
  H  H282  1  0.142500  0.061600  -0.105300  1
  H  H283  1  0.139600  -0.426600  -0.204900  1
  H  H284  1  0.236500  -0.147600  -0.074900  1
  H  H285  1  0.062400  0.064200  -0.112600  1
  H  H286  1  0.051900  0.020700  -0.197000  1
  H  H287  1  0.050500  -0.112700  -0.142400  1
  H  H288  1  0.193300  -0.124500  -0.007400  1
  H  H289  1  0.139400  -0.202400  -0.022600  1
  H  H290  1  0.154700  -0.582700  -0.098300  1
  H  H291  1  0.203400  -0.472000  -0.081700  1
  H  H292  1  0.166200  -0.426300  -0.048400  1
  H  H293  1  0.062600  -0.422600  -0.164100  1
  H  H294  1  0.049900  -0.368600  -0.248300  1
  H  H295  1  0.208300  0.115500  -0.119000  1
  H  H296  1  0.264100  0.069100  -0.109700  1
  H  H297  1  0.211000  0.074300  -0.194600  1
  H  H298  1  0.211900  -0.326700  -0.189300  1
  H  H299  1  0.270900  -0.254900  -0.141000  1
  H  H300  1  0.118500  0.033300  0.018300  1
  H  H301  1  0.173100  -0.041600  0.086300  1
  H  H302  1  0.174500  0.104000  0.037400  1
  H  H303  1  0.091400  -0.672900  -0.192300  1
  H  H304  1  0.028500  -0.640900  -0.237400  1
  H  H305  1  0.060400  -0.614900  -0.281200  1
  H  H306  1  0.187200  -0.168200  -0.290900  1
  H  H307  1  0.231100  -0.039800  -0.239100  1
  H  H308  1  0.248400  -0.197500  -0.262600  1
  H  H309  1  0.642500  -0.561600  0.394700  1
  H  H310  1  0.639600  -0.073400  0.295100  1
  H  H311  1  0.736500  -0.352400  0.425100  1
  H  H312  1  0.562400  -0.564200  0.387400  1
  H  H313  1  0.551900  -0.520700  0.303000  1
  H  H314  1  0.550500  -0.387300  0.357600  1
  H  H315  1  0.693300  -0.375500  0.492600  1
  H  H316  1  0.639400  -0.297600  0.477400  1
  H  H317  1  0.654700  0.082700  0.401700  1
  H  H318  1  0.703400  -0.028000  0.418300  1
  H  H319  1  0.666200  -0.073700  0.451600  1
  H  H320  1  0.562600  -0.077400  0.335900  1
  H  H321  1  0.549900  -0.131400  0.251700  1
  H  H322  1  0.708300  -0.615500  0.381000  1
  H  H323  1  0.764100  -0.569100  0.390300  1
  H  H324  1  0.711000  -0.574300  0.305400  1
  H  H325  1  0.711900  -0.173300  0.310700  1
  H  H326  1  0.770900  -0.245100  0.359000  1
  H  H327  1  0.618500  -0.533300  0.518300  1
  H  H328  1  0.673100  -0.458400  0.586300  1
  H  H329  1  0.674500  -0.604000  0.537400  1
  H  H330  1  0.591400  0.172900  0.307700  1
  H  H331  1  0.528500  0.140900  0.262600  1
  H  H332  1  0.560400  0.114900  0.218800  1
  H  H333  1  0.687200  -0.331800  0.209100  1
  H  H334  1  0.731100  -0.460200  0.260900  1
  H  H335  1  0.748400  -0.302500  0.237400  1
  H  H336  1  0.513000  -0.180100  0.111400  1
  H  H337  1  0.600900  -0.696500  0.155800  1
  H  H338  1  0.399100  -0.303500  -0.155800  1
  H  H339  1  0.487000  -0.819900  -0.111400  1
  H  H340  1  0.631700  -1.000700  0.172000  1
  H  H341  1  0.368300  0.000700  -0.172000  1
  H  H342  1  0.358500  0.177700  -0.088500  1
  H  H343  1  0.641500  -1.177700  0.088500  1
  H  H344  1  0.357500  -0.438400  -0.394700  1
  H  H345  1  0.360400  -0.926600  -0.295100  1
  H  H346  1  0.263500  -0.647600  -0.425100  1
  H  H347  1  0.437600  -0.435800  -0.387400  1
  H  H348  1  0.448100  -0.479300  -0.303000  1
  H  H349  1  0.449500  -0.612700  -0.357600  1
  H  H350  1  0.306700  -0.624500  -0.492600  1
  H  H351  1  0.360600  -0.702400  -0.477400  1
  H  H352  1  0.345300  -1.082700  -0.401700  1
  H  H353  1  0.296600  -0.972000  -0.418300  1
  H  H354  1  0.333800  -0.926300  -0.451600  1
  H  H355  1  0.437400  -0.922600  -0.335900  1
  H  H356  1  0.450100  -0.868600  -0.251700  1
  H  H357  1  0.291700  -0.384500  -0.381000  1
  H  H358  1  0.235900  -0.430900  -0.390300  1
  H  H359  1  0.289000  -0.425700  -0.305400  1
  H  H360  1  0.288100  -0.826700  -0.310700  1
  H  H361  1  0.229100  -0.754900  -0.359000  1
  H  H362  1  0.381500  -0.466700  -0.518300  1
  H  H363  1  0.326900  -0.541600  -0.586300  1
  H  H364  1  0.325500  -0.396000  -0.537400  1
  H  H365  1  0.408600  -1.172900  -0.307700  1
  H  H366  1  0.471500  -1.140900  -0.262600  1
  H  H367  1  0.439600  -1.114900  -0.218800  1
  H  H368  1  0.312800  -0.668200  -0.209100  1
  H  H369  1  0.268900  -0.539800  -0.260900  1
  H  H370  1  0.251600  -0.697500  -0.237400  1
  H  H371  1  -0.642500  -0.561600  -0.894700  1
  H  H372  1  -0.639600  -0.073400  -0.795100  1
  H  H373  1  -0.736500  -0.352400  -0.925100  1
  H  H374  1  -0.562400  -0.564200  -0.887400  1
  H  H375  1  -0.551900  -0.520700  -0.803000  1
  H  H376  1  -0.550500  -0.387300  -0.857600  1
  H  H377  1  -0.693300  -0.375500  -0.992600  1
  H  H378  1  -0.639400  -0.297600  -0.977400  1
  H  H379  1  -0.654700  0.082700  -0.901700  1
  H  H380  1  -0.703400  -0.028000  -0.918300  1
  H  H381  1  -0.666200  -0.073700  -0.951600  1
  H  H382  1  -0.562600  -0.077400  -0.835900  1
  H  H383  1  -0.549900  -0.131400  -0.751700  1
  H  H384  1  -0.708300  -0.615500  -0.881000  1
  H  H385  1  -0.764100  -0.569100  -0.890300  1
  H  H386  1  -0.711000  -0.574300  -0.805400  1
  H  H387  1  -0.711900  -0.173300  -0.810700  1
  H  H388  1  -0.770900  -0.245100  -0.859000  1
  H  H389  1  -0.618500  -0.533300  -1.018300  1
  H  H390  1  -0.673100  -0.458400  -1.086300  1
  H  H391  1  -0.674500  -0.604000  -1.037400  1
  H  H392  1  -0.591400  0.172900  -0.807700  1
  H  H393  1  -0.528500  0.140900  -0.762600  1
  H  H394  1  -0.560400  0.114900  -0.718800  1
  H  H395  1  -0.687200  -0.331800  -0.709100  1
  H  H396  1  -0.731100  -0.460200  -0.760900  1
  H  H397  1  -0.748400  -0.302500  -0.737400  1
  H  H398  1  -0.513000  -0.180100  -0.611400  1
  H  H399  1  -0.600900  -0.696500  -0.655800  1
  H  H400  1  -0.399100  -0.303500  -0.344200  1
  H  H401  1  -0.487000  -0.819900  -0.388600  1
  H  H402  1  -0.631700  -1.000700  -0.672000  1
  H  H403  1  -0.368300  0.000700  -0.328000  1
  H  H404  1  -0.358500  0.177700  -0.411500  1
  H  H405  1  -0.641500  -1.177700  -0.588500  1
  H  H406  1  -0.357500  -0.438400  -0.105300  1
  H  H407  1  -0.360400  -0.926600  -0.204900  1
  H  H408  1  -0.263500  -0.647600  -0.074900  1
  H  H409  1  -0.437600  -0.435800  -0.112600  1
  H  H410  1  -0.448100  -0.479300  -0.197000  1
  H  H411  1  -0.449500  -0.612700  -0.142400  1
  H  H412  1  -0.306700  -0.624500  -0.007400  1
  H  H413  1  -0.360600  -0.702400  -0.022600  1
  H  H414  1  -0.345300  -1.082700  -0.098300  1
  H  H415  1  -0.296600  -0.972000  -0.081700  1
  H  H416  1  -0.333800  -0.926300  -0.048400  1
  H  H417  1  -0.437400  -0.922600  -0.164100  1
  H  H418  1  -0.450100  -0.868600  -0.248300  1
  H  H419  1  -0.291700  -0.384500  -0.119000  1
  H  H420  1  -0.235900  -0.430900  -0.109700  1
  H  H421  1  -0.289000  -0.425700  -0.194600  1
  H  H422  1  -0.288100  -0.826700  -0.189300  1
  H  H423  1  -0.229100  -0.754900  -0.141000  1
  H  H424  1  -0.381500  -0.466700  0.018300  1
  H  H425  1  -0.326900  -0.541600  0.086300  1
  H  H426  1  -0.325500  -0.396000  0.037400  1
  H  H427  1  -0.408600  -1.172900  -0.192300  1
  H  H428  1  -0.471500  -1.140900  -0.237400  1
  H  H429  1  -0.439600  -1.114900  -0.281200  1
  H  H430  1  -0.312800  -0.668200  -0.290900  1
  H  H431  1  -0.268900  -0.539800  -0.239100  1
  H  H432  1  -0.251600  -0.697500  -0.262600  1
  S  S433  1  -0.065000  0.581800  0.025600  1
  S  S434  1  0.065000  -0.581800  -0.025600  1
  S  S435  1  0.065000  0.581800  -0.525600  1
  S  S436  1  -0.065000  -0.581800  -0.474400  1
  S  S437  1  0.435000  0.081800  0.025600  1
  S  S438  1  0.565000  -1.081800  -0.025600  1
  S  S439  1  -0.435000  0.081800  -0.525600  1
  S  S440  1  -0.565000  -1.081800  -0.474400  1
  Si  Si441  1  0.142970  0.168840  0.330810  1.0
  Si  Si442  1  -0.142970  -0.168840  -0.330810  1
  Si  Si443  1  -0.142970  0.168840  -0.830810  1.0
  Si  Si444  1  0.142970  -0.168840  -0.169190  1
  Si  Si445  1  0.642970  -0.331160  0.330810  1.0
  Si  Si446  1  0.357030  -0.668840  -0.330810  1
  Si  Si447  1  -0.642970  -0.331160  -0.830810  1.0
  Si  Si448  1  -0.357030  -0.668840  -0.169190  1
