# generated using pymatgen
data_SiH27(C12O)2
_symmetry_space_group_name_H-M   'P 1'
_cell_length_a   9.55500000
_cell_length_b   9.90900000
_cell_length_c   11.76000000
_cell_angle_alpha   73.45800000
_cell_angle_beta   83.93300000
_cell_angle_gamma   73.33200000
_symmetry_Int_Tables_number   1
_chemical_formula_structural   SiH27(C12O)2
_chemical_formula_sum   'Si2 H54 C48 O4'
_cell_volume   1022.16124529
_cell_formula_units_Z   2
loop_
 _symmetry_equiv_pos_site_id
 _symmetry_equiv_pos_as_xyz
  1  'x, y, z'
loop_
 _atom_site_type_symbol
 _atom_site_label
 _atom_site_symmetry_multiplicity
 _atom_site_fract_x
 _atom_site_fract_y
 _atom_site_fract_z
 _atom_site_occupancy
  C  C1  1  0.849550  0.176120  0.275860  1
  C  C2  1  0.607340  0.296270  0.441480  1
  C  C3  1  0.934660  0.208710  0.500930  1
  C  C4  1  0.798770  0.484120  0.286320  1
  C  C5  1  0.895140  0.113630  0.199470  1
  C  C6  1  0.490900  0.367600  0.345880  1
  C  C7  1  0.594750  0.144070  0.511810  1
  C  C8  1  0.895180  0.270550  0.609230  1
  C  C9  1  1.092470  0.206670  0.458100  1
  C  C10  1  0.935200  0.495460  0.206540  1
  C  C11  1  0.768470  0.590310  0.364680  1
  C  C12  1  0.949500  0.051570  0.101900  1
  C  C13  1  1.080670  0.076360  0.042260  1
  C  C14  1  0.868970  -0.024890  0.062130  1
  C  C15  1  1.163740  0.149640  0.082120  1
  C  C16  1  1.131030  0.024890  -0.062130  1
  C  C17  1  0.919330  -0.076360  -0.042260  1
  C  C18  1  0.739410  -0.052710  0.120920  1
  C  C19  1  1.290980  0.175610  0.023590  1
  C  C20  1  1.050500  -0.051570  -0.101900  1
  C  C21  1  1.260590  0.052710  -0.120920  1
  C  C22  1  0.836260  -0.149640  -0.082120  1
  C  C23  1  0.659900  -0.126290  0.081960  1
  C  C24  1  1.376140  0.248950  0.064580  1
  C  C25  1  1.340100  0.126290  -0.081960  1
  C  C26  1  1.104860  -0.113630  -0.199470  1
  C  C27  1  0.709020  -0.175610  -0.023590  1
  C  C28  1  0.529270  -0.155860  0.141890  1
  C  C29  1  1.499750  0.273190  0.005470  1
  C  C30  1  1.470730  0.155860  -0.141890  1
  C  C31  1  1.150450  -0.176120  -0.275860  1
  C  C32  1  0.623860  -0.248950  -0.064580  1
  C  C33  1  0.453650  -0.226790  0.100680  1
  C  C34  1  1.546350  0.226790  -0.100680  1
  C  C35  1  0.500250  -0.273190  -0.005470  1
  C  C36  1  1.700690  0.368480  -0.018330  1
  C  C37  1  1.392660  -0.296270  -0.441480  1
  C  C38  1  1.065340  -0.208710  -0.500930  1
  C  C39  1  1.201230  -0.484120  -0.286320  1
  C  C40  1  0.256760  -0.327650  0.116340  1
  C  C41  1  1.743240  0.327650  -0.116340  1
  C  C42  1  1.509100  -0.367600  -0.345880  1
  C  C43  1  1.405250  -0.144070  -0.511810  1
  C  C44  1  1.104820  -0.270550  -0.609230  1
  C  C45  1  0.907530  -0.206670  -0.458100  1
  C  C46  1  1.064800  -0.495460  -0.206540  1
  C  C47  1  1.231530  -0.590310  -0.364680  1
  C  C48  1  0.299310  -0.368480  0.018330  1
  H  H49  1  0.586000  0.358000  0.498600  1
  H  H50  1  0.933600  0.103900  0.530300  1
  H  H51  1  0.714500  0.518200  0.232100  1
  H  H52  1  0.514200  0.316400  0.283400  1
  H  H53  1  0.489500  0.470400  0.311600  1
  H  H54  1  0.394800  0.361400  0.381700  1
  H  H55  1  0.495300  0.151300  0.545200  1
  H  H56  1  0.664600  0.104000  0.576300  1
  H  H57  1  0.616300  0.079600  0.459000  1
  H  H58  1  0.962800  0.210900  0.673000  1
  H  H59  1  0.795000  0.268800  0.636500  1
  H  H60  1  0.902400  0.371500  0.587400  1
  H  H61  1  1.102600  0.306600  0.435000  1
  H  H62  1  1.116200  0.165500  0.389700  1
  H  H63  1  1.159300  0.146500  0.522300  1
  H  H64  1  0.920500  0.595600  0.155900  1
  H  H65  1  0.952000  0.427700  0.156800  1
  H  H66  1  1.020100  0.470300  0.256000  1
  H  H67  1  0.849900  0.563000  0.418200  1
  H  H68  1  0.678000  0.585600  0.411400  1
  H  H69  1  0.758300  0.690100  0.314400  1
  H  H70  1  1.131600  0.182300  0.151300  1
  H  H71  1  0.705800  -0.019600  0.189800  1
  H  H72  1  1.294200  0.019600  -0.189800  1
  H  H73  1  0.868400  -0.182300  -0.151300  1
  H  H74  1  1.345500  0.281100  0.134200  1
  H  H75  1  0.495500  -0.125000  0.211700  1
  H  H76  1  1.504500  0.125000  -0.211700  1
  H  H77  1  0.654500  -0.281100  -0.134200  1
  H  H78  1  1.756100  0.419800  0.007000  1
  H  H79  1  1.414000  -0.358000  -0.498600  1
  H  H80  1  1.066400  -0.103900  -0.530300  1
  H  H81  1  1.285500  -0.518200  -0.232100  1
  H  H82  1  0.172400  -0.351100  0.158000  1
  H  H83  1  1.827600  0.351100  -0.158000  1
  H  H84  1  1.485800  -0.316400  -0.283400  1
  H  H85  1  1.510500  -0.470400  -0.311600  1
  H  H86  1  1.605200  -0.361400  -0.381700  1
  H  H87  1  1.504700  -0.151300  -0.545200  1
  H  H88  1  1.335400  -0.104000  -0.576300  1
  H  H89  1  1.383700  -0.079600  -0.459000  1
  H  H90  1  1.037200  -0.210900  -0.673000  1
  H  H91  1  1.205000  -0.268800  -0.636500  1
  H  H92  1  1.097600  -0.371500  -0.587400  1
  H  H93  1  0.897400  -0.306600  -0.435000  1
  H  H94  1  0.883800  -0.165500  -0.389700  1
  H  H95  1  0.840700  -0.146500  -0.522300  1
  H  H96  1  1.079500  -0.595600  -0.155900  1
  H  H97  1  1.048000  -0.427700  -0.156800  1
  H  H98  1  0.979900  -0.470300  -0.256000  1
  H  H99  1  1.150100  -0.563000  -0.418200  1
  H  H100  1  1.322000  -0.585600  -0.411400  1
  H  H101  1  1.241700  -0.690100  -0.314400  1
  H  H102  1  0.243900  -0.419800  -0.007000  1
  O  O103  1  1.579890  0.340990  0.049960  1
  O  O104  1  0.328410  -0.252260  0.161960  1
  O  O105  1  1.671590  0.252260  -0.161960  1
  O  O106  1  0.420110  -0.340990  -0.049960  1
  Si  Si107  1  0.797700  0.293920  0.378580  1.0
  Si  Si108  1  1.202300  -0.293920  -0.378580  1
