# generated using pymatgen
data_SiH31C24
_symmetry_space_group_name_H-M   'P 1'
_cell_length_a   8.57800000
_cell_length_b   17.62600000
_cell_length_c   14.57900000
_cell_angle_alpha   90.00000000
_cell_angle_beta   105.74500000
_cell_angle_gamma   90.00000000
_symmetry_Int_Tables_number   1
_chemical_formula_structural   SiH31C24
_chemical_formula_sum   'Si4 H124 C96'
_cell_volume   2121.57686195
_cell_formula_units_Z   4
loop_
 _symmetry_equiv_pos_site_id
 _symmetry_equiv_pos_as_xyz
  1  'x, y, z'
loop_
 _atom_site_type_symbol
 _atom_site_label
 _atom_site_symmetry_multiplicity
 _atom_site_fract_x
 _atom_site_fract_y
 _atom_site_fract_z
 _atom_site_occupancy
  C  C1  1  0.420500  0.274300  0.954970  1
  C  C2  1  0.390200  0.140750  0.818480  1
  C  C3  1  0.545000  0.122720  1.037560  1
  C  C4  1  0.177700  0.155330  0.960060  1
  C  C5  1  0.442500  0.341750  0.966270  1
  C  C6  1  0.493800  0.190710  0.774510  1
  C  C7  1  0.436500  0.056950  0.815600  1
  C  C8  1  0.717400  0.141730  1.032600  1
  C  C9  1  0.528600  0.141920  1.136740  1
  C  C10  1  0.128800  0.071330  0.953440  1
  C  C11  1  0.047500  0.203270  0.891300  1
  C  C12  1  0.469600  0.421580  0.981640  1
  C  C13  1  0.369700  0.463530  1.026390  1
  C  C14  1  0.598500  0.456910  0.953900  1
  C  C15  1  0.239100  0.429580  1.052850  1
  C  C16  1  0.401500  0.543090  1.046100  1
  C  C17  1  0.630300  0.536470  0.973610  1
  C  C18  1  0.695800  0.416440  0.906630  1
  C  C19  1  0.144200  0.469830  1.098760  1
  C  C20  1  0.530400  0.578420  1.018360  1
  C  C21  1  0.304200  0.583560  1.093370  1
  C  C22  1  0.760900  0.570420  0.947150  1
  C  C23  1  0.821600  0.451050  0.879240  1
  C  C24  1  0.013000  0.435920  1.127620  1
  C  C25  1  0.178400  0.548950  1.120760  1
  C  C26  1  0.557500  0.658250  1.033730  1
  C  C27  1  0.855800  0.530170  0.901240  1
  C  C28  1  0.917000  0.412070  0.827860  1
  C  C29  1  -0.076300  0.474820  1.175670  1
  C  C30  1  0.083000  0.587930  1.172140  1
  C  C31  1  0.579500  0.725700  1.045030  1
  C  C32  1  0.987000  0.564080  0.872380  1
  C  C33  1  1.039200  0.446310  0.800160  1
  C  C34  1  -0.039200  0.553690  1.199840  1
  C  C35  1  -0.213000  0.436840  1.204470  1
  C  C36  1  1.076300  0.525180  0.824330  1
  C  C37  1  1.135800  0.403420  0.744910  1
  C  C38  1  -0.135800  0.596580  1.255090  1
  C  C39  1  0.609800  0.859250  1.181520  1
  C  C40  1  0.455000  0.877280  0.962440  1
  C  C41  1  0.822300  0.844670  1.039940  1
  C  C42  1  1.213000  0.563160  0.795530  1
  C  C43  1  0.506200  0.809290  1.225490  1
  C  C44  1  0.563500  0.943050  1.184400  1
  C  C45  1  0.282600  0.858270  0.967400  1
  C  C46  1  0.471400  0.858080  0.863260  1
  C  C47  1  0.871200  0.928670  1.046560  1
  C  C48  1  0.952500  0.796730  1.108700  1
  C  C49  1  0.579500  0.774300  0.545030  1
  C  C50  1  0.609800  0.640750  0.681520  1
  C  C51  1  0.455000  0.622720  0.462440  1
  C  C52  1  0.822300  0.655330  0.539940  1
  C  C53  1  0.557500  0.841750  0.533730  1
  C  C54  1  0.506200  0.690710  0.725490  1
  C  C55  1  0.563500  0.556950  0.684400  1
  C  C56  1  0.282600  0.641730  0.467400  1
  C  C57  1  0.471400  0.641920  0.363260  1
  C  C58  1  0.871200  0.571330  0.546560  1
  C  C59  1  0.952500  0.703270  0.608700  1
  C  C60  1  0.530400  0.921580  0.518360  1
  C  C61  1  0.630300  0.963530  0.473610  1
  C  C62  1  0.401500  0.956910  0.546100  1
  C  C63  1  0.760900  0.929580  0.447150  1
  C  C64  1  0.598500  1.043090  0.453900  1
  C  C65  1  0.369700  1.036470  0.526390  1
  C  C66  1  0.304200  0.916440  0.593370  1
  C  C67  1  0.855800  0.969830  0.401240  1
  C  C68  1  0.469600  1.078420  0.481640  1
  C  C69  1  0.695800  1.083560  0.406630  1
  C  C70  1  0.239100  1.070420  0.552850  1
  C  C71  1  0.178400  0.951050  0.620760  1
  C  C72  1  0.987000  0.935920  0.372380  1
  C  C73  1  0.821600  1.048950  0.379240  1
  C  C74  1  0.442500  1.158250  0.466270  1
  C  C75  1  0.144200  1.030170  0.598760  1
  C  C76  1  0.083000  0.912070  0.672140  1
  C  C77  1  1.076300  0.974820  0.324330  1
  C  C78  1  0.917000  1.087930  0.327860  1
  C  C79  1  0.420500  1.225700  0.454970  1
  C  C80  1  0.013000  1.064080  0.627620  1
  C  C81  1  -0.039200  0.946310  0.699840  1
  C  C82  1  1.039200  1.053690  0.300160  1
  C  C83  1  1.213000  0.936840  0.295530  1
  C  C84  1  -0.076300  1.025180  0.675670  1
  C  C85  1  -0.135800  0.903420  0.755090  1
  C  C86  1  1.135800  1.096580  0.244910  1
  C  C87  1  0.390200  1.359250  0.318480  1
  C  C88  1  0.545000  1.377280  0.537560  1
  C  C89  1  0.177700  1.344670  0.460060  1
  C  C90  1  -0.213000  1.063160  0.704470  1
  C  C91  1  0.493800  1.309290  0.274510  1
  C  C92  1  0.436500  1.443050  0.315600  1
  C  C93  1  0.717400  1.358270  0.532600  1
  C  C94  1  0.528600  1.358080  0.636740  1
  C  C95  1  0.128800  1.428670  0.453440  1
  C  C96  1  0.047500  1.296730  0.391300  1
  H  H97  1  0.276900  0.145500  0.776800  1
  H  H98  1  0.529500  0.066700  1.028300  1
  H  H99  1  0.182800  0.172600  1.026100  1
  H  H100  1  0.607600  0.185700  0.810800  1
  H  H101  1  0.459700  0.243700  0.775800  1
  H  H102  1  0.481300  0.175100  0.708400  1
  H  H103  1  0.436600  0.043200  0.750500  1
  H  H104  1  0.357800  0.025400  0.835900  1
  H  H105  1  0.544700  0.048700  0.858600  1
  H  H106  1  0.734500  0.196700  1.038800  1
  H  H107  1  0.731300  0.124800  0.971300  1
  H  H108  1  0.796200  0.115900  1.084500  1
  H  H109  1  0.612100  0.114900  1.184900  1
  H  H110  1  0.421300  0.126500  1.141400  1
  H  H111  1  0.542000  0.196700  1.147500  1
  H  H112  1  0.024500  0.065700  0.968100  1
  H  H113  1  0.211500  0.041900  0.999200  1
  H  H114  1  0.119300  0.052700  0.888800  1
  H  H115  1  0.038200  0.187400  0.825600  1
  H  H116  1  0.078000  0.257000  0.898800  1
  H  H117  1  -0.056700  0.196000  0.905600  1
  H  H118  1  0.215800  0.377500  1.038700  1
  H  H119  1  0.674700  0.364100  0.893200  1
  H  H120  1  0.325300  0.635900  1.106800  1
  H  H121  1  0.784200  0.622500  0.961300  1
  H  H122  1  -0.012400  0.384200  1.112500  1
  H  H123  1  0.894300  0.360200  0.812300  1
  H  H124  1  0.105700  0.639800  1.187700  1
  H  H125  1  1.012400  0.615800  0.887500  1
  H  H126  1  -0.223800  0.384300  1.181600  1
  H  H127  1  -0.314100  0.464300  1.176500  1
  H  H128  1  -0.190100  0.437200  1.274100  1
  H  H129  1  1.097600  0.350800  0.736000  1
  H  H130  1  1.121900  0.427400  0.682600  1
  H  H131  1  1.250600  0.404100  0.780200  1
  H  H132  1  -0.097600  0.649200  1.264000  1
  H  H133  1  -0.121900  0.572600  1.317400  1
  H  H134  1  -0.250600  0.595900  1.219800  1
  H  H135  1  0.723100  0.854500  1.223200  1
  H  H136  1  0.470500  0.933300  0.971700  1
  H  H137  1  0.817200  0.827400  0.973900  1
  H  H138  1  1.223800  0.615700  0.818400  1
  H  H139  1  1.314100  0.535700  0.823500  1
  H  H140  1  1.190100  0.562800  0.725900  1
  H  H141  1  0.392400  0.814300  1.189200  1
  H  H142  1  0.540300  0.756300  1.224200  1
  H  H143  1  0.518700  0.824900  1.291600  1
  H  H144  1  0.563400  0.956800  1.249500  1
  H  H145  1  0.642200  0.974600  1.164100  1
  H  H146  1  0.455300  0.951300  1.141400  1
  H  H147  1  0.265500  0.803300  0.961200  1
  H  H148  1  0.268700  0.875200  1.028700  1
  H  H149  1  0.203800  0.884100  0.915500  1
  H  H150  1  0.387900  0.885100  0.815100  1
  H  H151  1  0.578700  0.873500  0.858600  1
  H  H152  1  0.458000  0.803300  0.852500  1
  H  H153  1  0.975500  0.934300  1.031900  1
  H  H154  1  0.788500  0.958100  1.000800  1
  H  H155  1  0.880700  0.947300  1.111200  1
  H  H156  1  0.961800  0.812600  1.174400  1
  H  H157  1  0.922000  0.743000  1.101200  1
  H  H158  1  1.056700  0.804000  1.094400  1
  H  H159  1  0.723100  0.645500  0.723200  1
  H  H160  1  0.470500  0.566700  0.471700  1
  H  H161  1  0.817200  0.672600  0.473900  1
  H  H162  1  0.392400  0.685700  0.689200  1
  H  H163  1  0.540300  0.743700  0.724200  1
  H  H164  1  0.518700  0.675100  0.791600  1
  H  H165  1  0.563400  0.543200  0.749500  1
  H  H166  1  0.642200  0.525400  0.664100  1
  H  H167  1  0.455300  0.548700  0.641400  1
  H  H168  1  0.265500  0.696700  0.461200  1
  H  H169  1  0.268700  0.624800  0.528700  1
  H  H170  1  0.203800  0.615900  0.415500  1
  H  H171  1  0.387900  0.614900  0.315100  1
  H  H172  1  0.578700  0.626500  0.358600  1
  H  H173  1  0.458000  0.696700  0.352500  1
  H  H174  1  0.975500  0.565700  0.531900  1
  H  H175  1  0.788500  0.541900  0.500800  1
  H  H176  1  0.880700  0.552700  0.611200  1
  H  H177  1  0.961800  0.687400  0.674400  1
  H  H178  1  0.922000  0.757000  0.601200  1
  H  H179  1  1.056700  0.696000  0.594400  1
  H  H180  1  0.784200  0.877500  0.461300  1
  H  H181  1  0.325300  0.864100  0.606800  1
  H  H182  1  0.674700  1.135900  0.393200  1
  H  H183  1  0.215800  1.122500  0.538700  1
  H  H184  1  1.012400  0.884200  0.387500  1
  H  H185  1  0.105700  0.860200  0.687700  1
  H  H186  1  0.894300  1.139800  0.312300  1
  H  H187  1  -0.012400  1.115800  0.612500  1
  H  H188  1  1.223800  0.884300  0.318400  1
  H  H189  1  1.314100  0.964300  0.323500  1
  H  H190  1  1.190100  0.937200  0.225900  1
  H  H191  1  -0.097600  0.850800  0.764000  1
  H  H192  1  -0.121900  0.927400  0.817400  1
  H  H193  1  -0.250600  0.904100  0.719800  1
  H  H194  1  1.097600  1.149200  0.236000  1
  H  H195  1  1.121900  1.072600  0.182600  1
  H  H196  1  1.250600  1.095900  0.280200  1
  H  H197  1  0.276900  1.354500  0.276800  1
  H  H198  1  0.529500  1.433300  0.528300  1
  H  H199  1  0.182800  1.327400  0.526100  1
  H  H200  1  -0.223800  1.115700  0.681600  1
  H  H201  1  -0.314100  1.035700  0.676500  1
  H  H202  1  -0.190100  1.062800  0.774100  1
  H  H203  1  0.607600  1.314300  0.310800  1
  H  H204  1  0.459700  1.256300  0.275800  1
  H  H205  1  0.481300  1.324900  0.208400  1
  H  H206  1  0.436600  1.456800  0.250500  1
  H  H207  1  0.357800  1.474600  0.335900  1
  H  H208  1  0.544700  1.451300  0.358600  1
  H  H209  1  0.734500  1.303300  0.538800  1
  H  H210  1  0.731300  1.375200  0.471300  1
  H  H211  1  0.796200  1.384100  0.584500  1
  H  H212  1  0.612100  1.385100  0.684900  1
  H  H213  1  0.421300  1.373500  0.641400  1
  H  H214  1  0.542000  1.303300  0.647500  1
  H  H215  1  0.024500  1.434300  0.468100  1
  H  H216  1  0.211500  1.458100  0.499200  1
  H  H217  1  0.119300  1.447300  0.388800  1
  H  H218  1  0.038200  1.312600  0.325600  1
  H  H219  1  0.078000  1.243000  0.398800  1
  H  H220  1  -0.056700  1.304000  0.405600  1
  Si  Si221  1  0.384180  0.171210  0.941650  1.0
  Si  Si222  1  0.615820  0.828790  1.058350  1
  Si  Si223  1  0.615820  0.671210  0.558350  1.0
  Si  Si224  1  0.384180  1.328790  0.441650  1
