# generated using pymatgen
data_SiH26C22SNO
_symmetry_space_group_name_H-M   'P 1'
_cell_length_a   10.67030000
_cell_length_b   16.20680000
_cell_length_c   12.04900000
_cell_angle_alpha   90.00000000
_cell_angle_beta   106.68300000
_cell_angle_gamma   90.00000000
_symmetry_Int_Tables_number   1
_chemical_formula_structural   SiH26C22SNO
_chemical_formula_sum   'Si4 H104 C88 S4 N4 O4'
_cell_volume   1995.94503718
_cell_formula_units_Z   4
loop_
 _symmetry_equiv_pos_site_id
 _symmetry_equiv_pos_as_xyz
  1  'x, y, z'
loop_
 _atom_site_type_symbol
 _atom_site_label
 _atom_site_symmetry_multiplicity
 _atom_site_fract_x
 _atom_site_fract_y
 _atom_site_fract_z
 _atom_site_occupancy
  C  C1  1  0.641300  0.987590  0.222040  1
  C  C2  1  0.887700  0.921290  0.190800  1
  C  C3  1  0.628100  0.885980  0.011800  1
  C  C4  1  0.740600  1.064450  0.033400  1
  C  C5  1  0.596300  0.993050  0.303080  1
  C  C6  1  0.978800  0.979610  0.275900  1
  C  C7  1  0.593000  0.812040  0.075900  1
  C  C8  1  0.834500  1.059430  -0.040300  1
  C  C9  1  0.547300  0.996910  0.401950  1
  C  C10  1  0.432000  1.041820  0.395890  1
  C  C11  1  0.616100  0.954500  0.503380  1
  C  C12  1  0.362200  1.082890  0.293140  1
  C  C13  1  0.383900  1.045500  0.496620  1
  C  C14  1  0.568000  0.958180  0.604110  1
  C  C15  1  0.731400  0.908320  0.510380  1
  C  C16  1  0.250300  1.125470  0.289660  1
  C  C17  1  0.452700  1.003090  0.598050  1
  C  C18  1  0.268600  1.091680  0.489620  1
  C  C19  1  0.637800  0.917110  0.706860  1
  C  C20  1  0.797100  0.869080  0.610800  1
  C  C21  1  0.202900  1.130920  0.389200  1
  C  C22  1  0.403700  1.006950  0.696920  1
  C  C23  1  0.749700  0.874530  0.710340  1
  C  C24  1  0.916300  0.822100  0.638300  1
  C  C25  1  0.083700  1.177900  0.361700  1
  C  C26  1  0.043000  1.205400  0.251600  1
  C  C27  1  0.358700  1.012410  0.777960  1
  C  C28  1  0.957000  0.794600  0.748400  1
  C  C29  1  -0.068900  1.255370  0.181430  1
  C  C30  1  1.068900  0.744630  0.818570  1
  C  C31  1  0.112300  1.078710  0.809200  1
  C  C32  1  0.371900  1.114020  0.988200  1
  C  C33  1  0.259400  0.935550  0.966600  1
  C  C34  1  -0.288000  1.311330  0.144000  1
  C  C35  1  -0.214900  1.214300  0.305100  1
  C  C36  1  0.021200  1.020390  0.724100  1
  C  C37  1  0.407000  1.187960  0.924100  1
  C  C38  1  0.165500  0.940570  1.040300  1
  C  C39  1  1.288000  0.688670  0.856000  1
  C  C40  1  1.214900  0.785700  0.694900  1
  C  C41  1  -0.389900  1.304850  0.209900  1
  C  C42  1  -0.364100  1.219840  0.265500  1
  C  C43  1  1.389900  0.695150  0.790100  1
  C  C44  1  1.364100  0.780160  0.734500  1
  C  C45  1  0.358700  0.487590  1.277960  1
  C  C46  1  0.112300  0.421290  1.309200  1
  C  C47  1  0.371900  0.385980  1.488200  1
  C  C48  1  0.259400  0.564450  1.466600  1
  C  C49  1  0.403700  0.493050  1.196920  1
  C  C50  1  0.021200  0.479610  1.224100  1
  C  C51  1  0.407000  0.312040  1.424100  1
  C  C52  1  0.165500  0.559430  1.540300  1
  C  C53  1  0.452700  0.496910  1.098050  1
  C  C54  1  0.568000  0.541820  1.104110  1
  C  C55  1  0.383900  0.454500  0.996620  1
  C  C56  1  0.637800  0.582890  1.206860  1
  C  C57  1  0.616100  0.545500  1.003380  1
  C  C58  1  0.432000  0.458180  0.895890  1
  C  C59  1  0.268600  0.408320  0.989620  1
  C  C60  1  0.749700  0.625470  1.210340  1
  C  C61  1  0.547300  0.503090  0.901950  1
  C  C62  1  0.731400  0.591680  1.010380  1
  C  C63  1  0.362200  0.417110  0.793140  1
  C  C64  1  0.202900  0.369080  0.889200  1
  C  C65  1  0.797100  0.630920  1.110800  1
  C  C66  1  0.596300  0.506950  0.803080  1
  C  C67  1  0.250300  0.374530  0.789660  1
  C  C68  1  0.083700  0.322100  0.861700  1
  C  C69  1  0.916300  0.677900  1.138300  1
  C  C70  1  0.957000  0.705400  1.248400  1
  C  C71  1  0.641300  0.512410  0.722040  1
  C  C72  1  0.043000  0.294600  0.751600  1
  C  C73  1  1.068900  0.755370  1.318570  1
  C  C74  1  -0.068900  0.244630  0.681430  1
  C  C75  1  0.887700  0.578710  0.690800  1
  C  C76  1  0.628100  0.614020  0.511800  1
  C  C77  1  0.740600  0.435550  0.533400  1
  C  C78  1  1.288000  0.811330  1.356000  1
  C  C79  1  1.214900  0.714300  1.194900  1
  C  C80  1  0.978800  0.520390  0.775900  1
  C  C81  1  0.593000  0.687960  0.575900  1
  C  C82  1  0.834500  0.440570  0.459700  1
  C  C83  1  -0.288000  0.188670  0.644000  1
  C  C84  1  -0.214900  0.285700  0.805100  1
  C  C85  1  1.389900  0.804850  1.290100  1
  C  C86  1  1.364100  0.719840  1.234500  1
  C  C87  1  -0.389900  0.195150  0.709900  1
  C  C88  1  -0.364100  0.280160  0.765500  1
  H  H89  1  0.872600  0.872000  0.233800  1
  H  H90  1  0.932100  0.902700  0.133500  1
  H  H91  1  0.546500  0.911400  -0.037000  1
  H  H92  1  0.678700  0.866300  -0.040300  1
  H  H93  1  0.652900  1.079900  -0.017000  1
  H  H94  1  0.770200  1.108900  0.091400  1
  H  H95  1  1.001700  1.026100  0.233500  1
  H  H96  1  1.058500  0.950000  0.317600  1
  H  H97  1  0.934700  1.000300  0.331300  1
  H  H98  1  0.672800  0.789200  0.129200  1
  H  H99  1  0.550200  0.769700  0.019700  1
  H  H100  1  0.533400  0.829800  0.119800  1
  H  H101  1  0.923000  1.048100  0.009600  1
  H  H102  1  0.834100  1.112000  -0.080600  1
  H  H103  1  0.807000  1.015000  -0.097300  1
  H  H104  1  0.393000  1.080900  0.226600  1
  H  H105  1  0.763200  0.904700  0.444500  1
  H  H106  1  0.236800  1.095300  0.555500  1
  H  H107  1  0.607000  0.919100  0.773400  1
  H  H108  1  0.962600  0.811200  0.583300  1
  H  H109  1  0.037400  1.188800  0.416700  1
  H  H110  1  0.127400  1.128000  0.766200  1
  H  H111  1  0.067900  1.097300  0.866500  1
  H  H112  1  0.453500  1.088600  1.037000  1
  H  H113  1  0.321300  1.133700  1.040300  1
  H  H114  1  0.347100  0.920100  1.017000  1
  H  H115  1  0.229800  0.891100  0.908600  1
  H  H116  1  -0.321000  1.287500  0.065400  1
  H  H117  1  -0.262300  1.369400  0.137600  1
  H  H118  1  -0.178500  1.238700  0.383100  1
  H  H119  1  -0.185000  1.156400  0.306300  1
  H  H120  1  -0.001700  0.973900  0.766500  1
  H  H121  1  -0.058500  1.050000  0.682400  1
  H  H122  1  0.065300  0.999700  0.668700  1
  H  H123  1  0.327200  1.210800  0.870800  1
  H  H124  1  0.449800  1.230300  0.980300  1
  H  H125  1  0.466600  1.170200  0.880200  1
  H  H126  1  0.077000  0.951900  0.990400  1
  H  H127  1  0.165900  0.888000  1.080600  1
  H  H128  1  0.193000  0.985000  1.097300  1
  H  H129  1  1.321000  0.712500  0.934600  1
  H  H130  1  1.262300  0.630600  0.862400  1
  H  H131  1  1.178500  0.761300  0.616900  1
  H  H132  1  1.185000  0.843600  0.693700  1
  H  H133  1  -0.377500  1.348600  0.269400  1
  H  H134  1  -0.479700  1.308700  0.156700  1
  H  H135  1  -0.402400  1.175900  0.208700  1
  H  H136  1  -0.400700  1.215300  0.332100  1
  H  H137  1  1.377500  0.651400  0.730600  1
  H  H138  1  1.479700  0.691300  0.843300  1
  H  H139  1  1.402400  0.824100  0.791300  1
  H  H140  1  1.400700  0.784700  0.667900  1
  H  H141  1  0.127400  0.372000  1.266200  1
  H  H142  1  0.067900  0.402700  1.366500  1
  H  H143  1  0.453500  0.411400  1.537000  1
  H  H144  1  0.321300  0.366300  1.540300  1
  H  H145  1  0.347100  0.579900  1.517000  1
  H  H146  1  0.229800  0.608900  1.408600  1
  H  H147  1  -0.001700  0.526100  1.266500  1
  H  H148  1  -0.058500  0.450000  1.182400  1
  H  H149  1  0.065300  0.500300  1.168700  1
  H  H150  1  0.327200  0.289200  1.370800  1
  H  H151  1  0.449800  0.269700  1.480300  1
  H  H152  1  0.466600  0.329800  1.380200  1
  H  H153  1  0.077000  0.548100  1.490400  1
  H  H154  1  0.165900  0.612000  1.580600  1
  H  H155  1  0.193000  0.515000  1.597300  1
  H  H156  1  0.607000  0.580900  1.273400  1
  H  H157  1  0.236800  0.404700  1.055500  1
  H  H158  1  0.763200  0.595300  0.944500  1
  H  H159  1  0.393000  0.419100  0.726600  1
  H  H160  1  0.037400  0.311200  0.916700  1
  H  H161  1  0.962600  0.688800  1.083300  1
  H  H162  1  0.872600  0.628000  0.733800  1
  H  H163  1  0.932100  0.597300  0.633500  1
  H  H164  1  0.546500  0.588600  0.463000  1
  H  H165  1  0.678700  0.633700  0.459700  1
  H  H166  1  0.652900  0.420100  0.483000  1
  H  H167  1  0.770200  0.391100  0.591400  1
  H  H168  1  1.321000  0.787500  1.434600  1
  H  H169  1  1.262300  0.869400  1.362400  1
  H  H170  1  1.178500  0.738700  1.116900  1
  H  H171  1  1.185000  0.656400  1.193700  1
  H  H172  1  1.001700  0.473900  0.733500  1
  H  H173  1  1.058500  0.550000  0.817600  1
  H  H174  1  0.934700  0.499700  0.831300  1
  H  H175  1  0.672800  0.710800  0.629200  1
  H  H176  1  0.550200  0.730300  0.519700  1
  H  H177  1  0.533400  0.670200  0.619800  1
  H  H178  1  0.923000  0.451900  0.509600  1
  H  H179  1  0.834100  0.388000  0.419400  1
  H  H180  1  0.807000  0.485000  0.402700  1
  H  H181  1  -0.321000  0.212500  0.565400  1
  H  H182  1  -0.262300  0.130600  0.637600  1
  H  H183  1  -0.178500  0.261300  0.883100  1
  H  H184  1  -0.185000  0.343600  0.806300  1
  H  H185  1  1.377500  0.848600  1.230600  1
  H  H186  1  1.479700  0.808700  1.343300  1
  H  H187  1  1.402400  0.675900  1.291300  1
  H  H188  1  1.400700  0.715300  1.167900  1
  H  H189  1  -0.377500  0.151400  0.769400  1
  H  H190  1  -0.479700  0.191300  0.656700  1
  H  H191  1  -0.402400  0.324100  0.708700  1
  H  H192  1  -0.400700  0.284700  0.832100  1
  N  N193  1  -0.177210  1.262750  0.216240  1
  N  N194  1  1.177210  0.737250  0.783760  1
  N  N195  1  1.177210  0.762750  1.283760  1
  N  N196  1  -0.177210  0.237250  0.716240  1
  O  O197  1  -0.060080  1.288180  0.090920  1
  O  O198  1  1.060080  0.711820  0.909080  1
  O  O199  1  1.060080  0.788180  1.409080  1
  O  O200  1  -0.060080  0.211820  0.590920  1
  S  S201  1  0.151070  1.179260  0.170500  1
  S  S202  1  0.848930  0.820740  0.829500  1
  S  S203  1  0.848930  0.679260  1.329500  1
  S  S204  1  0.151070  0.320740  0.670500  1
  Si  Si205  1  0.725790  0.966160  0.111290  1.0
  Si  Si206  1  0.274210  1.033840  0.888710  1
  Si  Si207  1  0.274210  0.466160  1.388710  1.0
  Si  Si208  1  0.725790  0.533840  0.611290  1
