# generated using pymatgen
data_GeH27C22
_symmetry_space_group_name_H-M   'P 1'
_cell_length_a   8.57530000
_cell_length_b   10.89510000
_cell_length_c   10.96280000
_cell_angle_alpha   67.02900000
_cell_angle_beta   87.52100000
_cell_angle_gamma   87.15500000
_symmetry_Int_Tables_number   1
_chemical_formula_structural   GeH27C22
_chemical_formula_sum   'Ge2 H54 C44'
_cell_volume   941.54096942
_cell_formula_units_Z   2
loop_
 _symmetry_equiv_pos_site_id
 _symmetry_equiv_pos_as_xyz
  1  'x, y, z'
loop_
 _atom_site_type_symbol
 _atom_site_label
 _atom_site_symmetry_multiplicity
 _atom_site_fract_x
 _atom_site_fract_y
 _atom_site_fract_z
 _atom_site_occupancy
  C  C1  1  0.645400  0.268900  0.799800  1
  C  C2  1  0.946000  0.181600  0.676500  1
  C  C3  1  0.641200  -0.009000  0.775600  1
  C  C4  1  0.627900  0.274000  0.513500  1
  C  C5  1  0.603100  0.334500  0.862100  1
  C  C6  1  1.022400  0.159600  0.807800  1
  C  C7  1  1.018400  0.087900  0.614900  1
  C  C8  1  0.698900  -0.075200  0.917600  1
  C  C9  1  0.463400  -0.011400  0.774000  1
  C  C10  1  0.638900  0.193200  0.427000  1
  C  C11  1  0.462000  0.328900  0.517500  1
  C  C12  1  0.551000  0.415900  0.932600  1
  C  C13  1  0.401600  0.480500  0.908600  1
  C  C14  1  0.650500  0.433600  1.024800  1
  C  C15  1  0.300200  0.462800  0.819000  1
  C  C16  1  0.349500  0.566400  0.975200  1
  C  C17  1  0.598400  0.519500  1.091400  1
  C  C18  1  0.799300  0.370100  1.051200  1
  C  C19  1  0.154200  0.525600  0.793900  1
  C  C20  1  0.449000  0.584100  1.067400  1
  C  C21  1  0.200700  0.629900  0.948800  1
  C  C22  1  0.699800  0.537200  1.181000  1
  C  C23  1  0.897300  0.388000  1.140300  1
  C  C24  1  0.052100  0.509600  0.701700  1
  C  C25  1  0.102700  0.612000  0.859700  1
  C  C26  1  0.396900  0.665500  1.137900  1
  C  C27  1  0.845800  0.474400  1.206100  1
  C  C28  1  1.048900  0.324900  1.167100  1
  C  C29  1  -0.090300  0.571800  0.678500  1
  C  C30  1  -0.048900  0.675100  0.832900  1
  C  C31  1  0.354600  0.731100  1.200200  1
  C  C32  1  0.947900  0.490400  1.298300  1
  C  C33  1  1.142800  0.344200  1.254600  1
  C  C34  1  -0.142800  0.655800  0.745400  1
  C  C35  1  1.090300  0.428200  1.321500  1
  C  C36  1  0.054000  0.818400  1.323500  1
  C  C37  1  0.358800  1.009000  1.224400  1
  C  C38  1  0.372100  0.726000  1.486500  1
  C  C39  1  -0.022400  0.840400  1.192200  1
  C  C40  1  -0.018400  0.912100  1.385100  1
  C  C41  1  0.301100  1.075200  1.082400  1
  C  C42  1  0.536600  1.011400  1.226000  1
  C  C43  1  0.361100  0.806800  1.573000  1
  C  C44  1  0.538000  0.671100  1.482500  1
  Ge  Ge45  1  0.715860  0.174290  0.689980  1.0
  Ge  Ge46  1  0.284140  0.825710  1.310020  1
  H  H47  1  0.970697  0.274120  0.614003  1
  H  H48  1  0.686063  -0.061585  0.724471  1
  H  H49  1  0.694530  0.352787  0.468754  1
  H  H50  1  1.012718  0.066358  0.868852  1
  H  H51  1  0.970036  0.218028  0.847062  1
  H  H52  1  1.133079  0.180490  0.791245  1
  H  H53  1  1.131622  0.098771  0.604448  1
  H  H54  1  0.973536  0.109241  0.528020  1
  H  H55  1  0.996735  -0.004485  0.672768  1
  H  H56  1  0.660807  -0.022556  0.968440  1
  H  H57  1  0.813329  -0.079808  0.916182  1
  H  H58  1  0.659403  -0.165494  0.959180  1
  H  H59  1  0.429697  -0.102759  0.822867  1
  H  H60  1  0.429603  0.020225  0.682182  1
  H  H61  1  0.416743  0.046851  0.815930  1
  H  H62  1  0.577304  0.113229  0.468231  1
  H  H63  1  0.748333  0.166835  0.417716  1
  H  H64  1  0.598286  0.247516  0.339284  1
  H  H65  1  0.433332  0.390665  0.428345  1
  H  H66  1  0.455792  0.376146  0.577583  1
  H  H67  1  0.389950  0.255131  0.549320  1
  H  H68  1  0.333376  0.406081  0.774698  1
  H  H69  1  0.833616  0.313563  1.007149  1
  H  H70  1  0.166384  0.686437  0.992851  1
  H  H71  1  0.666624  0.593919  1.225302  1
  H  H72  1  0.085063  0.454187  0.655946  1
  H  H73  1  1.084906  0.268579  1.123242  1
  H  H74  1  -0.156140  0.559467  0.616944  1
  H  H75  1  -0.084906  0.731421  0.876758  1
  H  H76  1  0.914937  0.545813  1.344054  1
  H  H77  1  1.243497  0.301609  1.271024  1
  H  H78  1  -0.243497  0.698391  0.728976  1
  H  H79  1  1.156140  0.440533  1.383056  1
  H  H80  1  0.029303  0.725880  1.385997  1
  H  H81  1  0.313937  1.061585  1.275529  1
  H  H82  1  0.305470  0.647213  1.531246  1
  H  H83  1  -0.012718  0.933642  1.131148  1
  H  H84  1  0.029964  0.781972  1.152938  1
  H  H85  1  -0.133079  0.819510  1.208755  1
  H  H86  1  -0.131622  0.901229  1.395552  1
  H  H87  1  0.026464  0.890759  1.471980  1
  H  H88  1  0.003265  1.004485  1.327232  1
  H  H89  1  0.339193  1.022556  1.031560  1
  H  H90  1  0.186671  1.079808  1.083818  1
  H  H91  1  0.340597  1.165494  1.040820  1
  H  H92  1  0.570303  1.102759  1.177133  1
  H  H93  1  0.570397  0.979775  1.317818  1
  H  H94  1  0.583257  0.953149  1.184070  1
  H  H95  1  0.422696  0.886771  1.531769  1
  H  H96  1  0.251667  0.833165  1.582284  1
  H  H97  1  0.401714  0.752484  1.660716  1
  H  H98  1  0.566668  0.609335  1.571655  1
  H  H99  1  0.544208  0.623854  1.422417  1
  H  H100  1  0.610050  0.744869  1.450680  1
