# generated using pymatgen
data_SiC28S3
_symmetry_space_group_name_H-M   'P 1'
_cell_length_a   9.84920000
_cell_length_b   10.24790000
_cell_length_c   16.98500000
_cell_angle_alpha   93.41600000
_cell_angle_beta   106.75000000
_cell_angle_gamma   110.50000000
_symmetry_Int_Tables_number   1
_chemical_formula_structural   SiC28S3
_chemical_formula_sum   'Si2 C56 S6'
_cell_volume   1512.83634996
_cell_formula_units_Z   2
loop_
 _symmetry_equiv_pos_site_id
 _symmetry_equiv_pos_as_xyz
  1  'x, y, z'
loop_
 _atom_site_type_symbol
 _atom_site_label
 _atom_site_symmetry_multiplicity
 _atom_site_fract_x
 _atom_site_fract_y
 _atom_site_fract_z
 _atom_site_occupancy
  C  C1  1  -0.147900  0.139900  0.719800  1
  C  C2  1  0.137000  0.374000  0.803300  1
  C  C3  1  0.082000  0.057000  0.839400  1
  C  C4  1  -0.082000  0.246000  0.893800  1
  C  C5  1  -0.245400  0.101300  0.655800  1
  C  C6  1  0.199000  0.346000  0.723600  1
  C  C7  1  0.290000  0.459000  0.871700  1
  C  C8  1  -0.036000  -0.064000  0.818000  1
  C  C9  1  0.039000  0.316000  0.993000  1
  C  C10  1  -0.132000  0.362000  0.877300  1
  C  C11  1  -0.375000  0.049100  0.575200  1
  C  C12  1  0.069000  -0.163000  0.808000  1
  C  C13  1  -0.399000  -0.065100  0.531100  1
  C  C14  1  -0.481000  0.128100  0.541700  1
  C  C15  1  -0.032000  -0.309000  0.723000  1
  C  C16  1  -0.519000  -0.128100  0.458300  1
  C  C17  1  -0.601000  0.065100  0.468900  1
  C  C18  1  -0.473400  0.263100  0.581300  1
  C  C19  1  -0.625000  -0.049100  0.424800  1
  C  C20  1  -0.526600  -0.263100  0.418700  1
  C  C21  1  -0.415000  -0.294000  0.462800  1
  C  C22  1  -0.585000  0.294000  0.537200  1
  C  C23  1  -0.754600  -0.101300  0.344200  1
  C  C24  1  -0.389000  -0.423000  0.443000  1
  C  C25  1  -0.611000  0.423000  0.557000  1
  C  C26  1  -0.852100  -0.139900  0.280200  1
  C  C27  1  -0.270000  -0.450200  0.474900  1
  C  C28  1  -0.730000  0.450200  0.525100  1
  C  C29  1  -0.270000  -0.589000  0.458700  1
  C  C30  1  -0.391000  -0.647000  0.384800  1
  C  C31  1  -0.730000  0.589000  0.541300  1
  C  C32  1  -0.609000  0.647000  0.615200  1
  C  C33  1  -1.137000  -0.374000  0.196700  1
  C  C34  1  -1.082000  -0.057000  0.160600  1
  C  C35  1  -0.918000  -0.246000  0.106200  1
  C  C36  1  -0.166000  -0.658000  0.486300  1
  C  C37  1  -0.416000  -0.770000  0.334100  1
  C  C38  1  -0.834000  0.658000  0.513700  1
  C  C39  1  -0.584000  0.770000  0.665900  1
  C  C40  1  -1.199000  -0.346000  0.276400  1
  C  C41  1  -1.290000  -0.459000  0.128300  1
  C  C42  1  -0.964000  0.064000  0.182000  1
  C  C43  1  -1.039000  -0.316000  0.007000  1
  C  C44  1  -0.868000  -0.362000  0.122700  1
  C  C45  1  -0.196000  -0.785000  0.437400  1
  C  C46  1  -0.310900  -0.839300  0.361900  1
  C  C47  1  -0.804000  0.785000  0.562600  1
  C  C48  1  -0.689100  0.839300  0.638100  1
  C  C49  1  -1.069000  0.163000  0.192000  1
  C  C50  1  -0.306900  -0.976500  0.343400  1
  C  C51  1  -0.693100  0.976500  0.656600  1
  C  C52  1  -0.968000  0.309000  0.277000  1
  C  C53  1  -0.195000  -1.008000  0.383800  1
  C  C54  1  -0.805000  1.008000  0.616200  1
  C  C55  1  0.439000  0.725000  0.906000  1.0
  C  C56  1  0.561000  0.275000  0.094000  1.0
  S  S57  1  -0.292200  -0.169500  0.552800  1
  S  S58  1  -0.707800  0.169500  0.447200  1
  S  S59  1  -0.506200  -0.551300  0.353900  1
  S  S60  1  -0.493800  0.551300  0.646100  1
  S  S61  1  -0.074700  -0.876800  0.469000  1
  S  S62  1  -0.925300  0.876800  0.531000  1
  Si  Si63  1  0.009800  0.205500  0.818700  1.0
  Si  Si64  1  -1.009800  -0.205500  0.181300  1
