# generated using pymatgen
data_SiH25(C12N)2
_symmetry_space_group_name_H-M   'P 1'
_cell_length_a   25.67770000
_cell_length_b   7.35900000
_cell_length_c   22.10350000
_cell_angle_alpha   90.00000000
_cell_angle_beta   97.97570000
_cell_angle_gamma   90.00000000
_symmetry_Int_Tables_number   1
_chemical_formula_structural   SiH25(C12N)2
_chemical_formula_sum   'Si8 H200 C192 N16'
_cell_volume   4136.32441366
_cell_formula_units_Z   8
loop_
 _symmetry_equiv_pos_site_id
 _symmetry_equiv_pos_as_xyz
  1  'x, y, z'
loop_
 _atom_site_type_symbol
 _atom_site_label
 _atom_site_symmetry_multiplicity
 _atom_site_fract_x
 _atom_site_fract_y
 _atom_site_fract_z
 _atom_site_occupancy
  C  C1  1  0.131400  0.823300  0.101660  1
  C  C2  1  0.057070  1.120700  0.124980  1
  C  C3  1  0.020230  0.717900  0.105070  1
  C  C4  1  0.091030  0.824800  0.224450  1
  C  C5  1  0.167450  0.797800  0.072830  1
  C  C6  1  0.105760  1.243700  0.124720  1
  C  C7  1  0.020860  1.194200  0.169190  1
  C  C8  1  0.001960  0.756300  0.037280  1
  C  C9  1  -0.027330  0.707000  0.139740  1
  C  C10  1  0.104010  0.624000  0.236160  1
  C  C11  1  0.135760  0.942800  0.256730  1
  C  C12  1  0.209310  0.773300  0.036900  1
  C  C13  1  0.241320  0.616600  0.044490  1
  C  C14  1  0.217580  0.907900  -0.006770  1
  C  C15  1  0.234150  0.482700  0.088380  1
  C  C16  1  0.282420  0.592100  0.006770  1
  C  C17  1  0.258680  0.883400  -0.044490  1
  C  C18  1  0.186680  1.066300  -0.014270  1
  C  C19  1  0.264590  0.326200  0.094710  1
  C  C20  1  0.290690  0.726700  -0.036900  1
  C  C21  1  0.313320  0.433700  0.014270  1
  C  C22  1  0.265850  1.017300  -0.088380  1
  C  C23  1  0.194860  1.199100  -0.056420  1
  C  C24  1  0.257110  0.188000  0.138070  1
  C  C25  1  0.305140  0.300900  0.056420  1
  C  C26  1  0.332550  0.702200  -0.072830  1
  C  C27  1  0.235410  1.173800  -0.094710  1
  C  C28  1  0.164280  1.361200  -0.062860  1
  C  C29  1  0.286760  0.034200  0.142780  1
  C  C30  1  0.335720  0.138800  0.062860  1
  C  C31  1  0.368600  0.676700  -0.101660  1
  C  C32  1  0.242890  1.312000  -0.138070  1
  C  C33  1  0.172760  1.491300  -0.104350  1
  C  C34  1  0.327240  0.008700  0.104350  1
  C  C35  1  0.278830  -0.104300  0.187030  1
  C  C36  1  0.213240  1.465800  -0.142780  1
  C  C37  1  0.140840  1.653400  -0.109820  1
  C  C38  1  0.359160  -0.153400  0.109820  1
  C  C39  1  0.442930  0.379300  -0.124980  1
  C  C40  1  0.479770  0.782100  -0.105070  1
  C  C41  1  0.408970  0.675200  -0.224450  1
  C  C42  1  0.221170  1.604300  -0.187030  1
  C  C43  1  0.394240  0.256300  -0.124720  1
  C  C44  1  0.479140  0.305800  -0.169190  1
  C  C45  1  0.498040  0.743700  -0.037280  1
  C  C46  1  0.527330  0.793000  -0.139740  1
  C  C47  1  0.395990  0.876000  -0.236160  1
  C  C48  1  0.364240  0.557200  -0.256730  1
  C  C49  1  0.868600  0.823300  0.398340  1
  C  C50  1  0.942930  1.120700  0.375020  1
  C  C51  1  0.979770  0.717900  0.394930  1
  C  C52  1  0.908970  0.824800  0.275550  1
  C  C53  1  0.832550  0.797800  0.427170  1
  C  C54  1  0.894240  1.243700  0.375280  1
  C  C55  1  0.979140  1.194200  0.330810  1
  C  C56  1  0.998040  0.756300  0.462720  1
  C  C57  1  1.027330  0.707000  0.360260  1
  C  C58  1  0.895990  0.624000  0.263840  1
  C  C59  1  0.864240  0.942800  0.243270  1
  C  C60  1  0.790690  0.773300  0.463100  1
  C  C61  1  0.758680  0.616600  0.455510  1
  C  C62  1  0.782420  0.907900  0.506770  1
  C  C63  1  0.765850  0.482700  0.411620  1
  C  C64  1  0.717580  0.592100  0.493230  1
  C  C65  1  0.741320  0.883400  0.544490  1
  C  C66  1  0.813320  1.066300  0.514270  1
  C  C67  1  0.735410  0.326200  0.405290  1
  C  C68  1  0.709310  0.726700  0.536900  1
  C  C69  1  0.686680  0.433700  0.485730  1
  C  C70  1  0.734150  1.017300  0.588380  1
  C  C71  1  0.805140  1.199100  0.556420  1
  C  C72  1  0.742890  0.188000  0.361930  1
  C  C73  1  0.694860  0.300900  0.443580  1
  C  C74  1  0.667450  0.702200  0.572830  1
  C  C75  1  0.764590  1.173800  0.594710  1
  C  C76  1  0.835720  1.361200  0.562860  1
  C  C77  1  0.713240  0.034200  0.357220  1
  C  C78  1  0.664280  0.138800  0.437140  1
  C  C79  1  0.631400  0.676700  0.601660  1
  C  C80  1  0.757110  1.312000  0.638070  1
  C  C81  1  0.827240  1.491300  0.604350  1
  C  C82  1  0.672760  0.008700  0.395650  1
  C  C83  1  0.721170  -0.104300  0.312970  1
  C  C84  1  0.786760  1.465800  0.642780  1
  C  C85  1  0.859160  1.653400  0.609820  1
  C  C86  1  0.640840  -0.153400  0.390180  1
  C  C87  1  0.557070  0.379300  0.624980  1
  C  C88  1  0.520230  0.782100  0.605070  1
  C  C89  1  0.591030  0.675200  0.724450  1
  C  C90  1  0.778830  1.604300  0.687030  1
  C  C91  1  0.605760  0.256300  0.624720  1
  C  C92  1  0.520860  0.305800  0.669190  1
  C  C93  1  0.501960  0.743700  0.537280  1
  C  C94  1  0.472670  0.793000  0.639740  1
  C  C95  1  0.604010  0.876000  0.736160  1
  C  C96  1  0.635760  0.557200  0.756730  1
  C  C97  1  0.631400  0.323300  0.101660  1
  C  C98  1  0.557070  0.620700  0.124980  1
  C  C99  1  0.520230  0.217900  0.105070  1
  C  C100  1  0.591030  0.324800  0.224450  1
  C  C101  1  0.667450  0.297800  0.072830  1
  C  C102  1  0.605760  0.743700  0.124720  1
  C  C103  1  0.520860  0.694200  0.169190  1
  C  C104  1  0.501960  0.256300  0.037280  1
  C  C105  1  0.472670  0.207000  0.139740  1
  C  C106  1  0.604010  0.124000  0.236160  1
  C  C107  1  0.635760  0.442800  0.256730  1
  C  C108  1  0.709310  0.273300  0.036900  1
  C  C109  1  0.741320  0.116600  0.044490  1
  C  C110  1  0.717580  0.407900  -0.006770  1
  C  C111  1  0.734150  -0.017300  0.088380  1
  C  C112  1  0.782420  0.092100  0.006770  1
  C  C113  1  0.758680  0.383400  -0.044490  1
  C  C114  1  0.686680  0.566300  -0.014270  1
  C  C115  1  0.764590  -0.173800  0.094710  1
  C  C116  1  0.790690  0.226700  -0.036900  1
  C  C117  1  0.813320  -0.066300  0.014270  1
  C  C118  1  0.765850  0.517300  -0.088380  1
  C  C119  1  0.694860  0.699100  -0.056420  1
  C  C120  1  0.757110  -0.312000  0.138070  1
  C  C121  1  0.805140  -0.199100  0.056420  1
  C  C122  1  0.832550  0.202200  -0.072830  1
  C  C123  1  0.735410  0.673800  -0.094710  1
  C  C124  1  0.664280  0.861200  -0.062860  1
  C  C125  1  0.786760  -0.465800  0.142780  1
  C  C126  1  0.835720  -0.361200  0.062860  1
  C  C127  1  0.868600  0.176700  -0.101660  1
  C  C128  1  0.742890  0.812000  -0.138070  1
  C  C129  1  0.672760  0.991300  -0.104350  1
  C  C130  1  0.827240  -0.491300  0.104350  1
  C  C131  1  0.778830  -0.604300  0.187030  1
  C  C132  1  0.713240  0.965800  -0.142780  1
  C  C133  1  0.640840  1.153400  -0.109820  1
  C  C134  1  0.859160  -0.653400  0.109820  1
  C  C135  1  0.942930  -0.120700  -0.124980  1
  C  C136  1  0.979770  0.282100  -0.105070  1
  C  C137  1  0.908970  0.175200  -0.224450  1
  C  C138  1  0.721170  1.104300  -0.187030  1
  C  C139  1  0.894240  -0.243700  -0.124720  1
  C  C140  1  0.979140  -0.194200  -0.169190  1
  C  C141  1  0.998040  0.243700  -0.037280  1
  C  C142  1  1.027330  0.293000  -0.139740  1
  C  C143  1  0.895990  0.376000  -0.236160  1
  C  C144  1  0.864240  0.057200  -0.256730  1
  C  C145  1  0.368600  0.323300  0.398340  1
  C  C146  1  0.442930  0.620700  0.375020  1
  C  C147  1  0.479770  0.217900  0.394930  1
  C  C148  1  0.408970  0.324800  0.275550  1
  C  C149  1  0.332550  0.297800  0.427170  1
  C  C150  1  0.394240  0.743700  0.375280  1
  C  C151  1  0.479140  0.694200  0.330810  1
  C  C152  1  0.498040  0.256300  0.462720  1
  C  C153  1  0.527330  0.207000  0.360260  1
  C  C154  1  0.395990  0.124000  0.263840  1
  C  C155  1  0.364240  0.442800  0.243270  1
  C  C156  1  0.290690  0.273300  0.463100  1
  C  C157  1  0.258680  0.116600  0.455510  1
  C  C158  1  0.282420  0.407900  0.506770  1
  C  C159  1  0.265850  -0.017300  0.411620  1
  C  C160  1  0.217580  0.092100  0.493230  1
  C  C161  1  0.241320  0.383400  0.544490  1
  C  C162  1  0.313320  0.566300  0.514270  1
  C  C163  1  0.235410  -0.173800  0.405290  1
  C  C164  1  0.209310  0.226700  0.536900  1
  C  C165  1  0.186680  -0.066300  0.485730  1
  C  C166  1  0.234150  0.517300  0.588380  1
  C  C167  1  0.305140  0.699100  0.556420  1
  C  C168  1  0.242890  -0.312000  0.361930  1
  C  C169  1  0.194860  -0.199100  0.443580  1
  C  C170  1  0.167450  0.202200  0.572830  1
  C  C171  1  0.264590  0.673800  0.594710  1
  C  C172  1  0.335720  0.861200  0.562860  1
  C  C173  1  0.213240  -0.465800  0.357220  1
  C  C174  1  0.164280  -0.361200  0.437140  1
  C  C175  1  0.131400  0.176700  0.601660  1
  C  C176  1  0.257110  0.812000  0.638070  1
  C  C177  1  0.327240  0.991300  0.604350  1
  C  C178  1  0.172760  -0.491300  0.395650  1
  C  C179  1  0.221170  -0.604300  0.312970  1
  C  C180  1  0.286760  0.965800  0.642780  1
  C  C181  1  0.359160  1.153400  0.609820  1
  C  C182  1  0.140840  -0.653400  0.390180  1
  C  C183  1  0.057070  -0.120700  0.624980  1
  C  C184  1  0.020230  0.282100  0.605070  1
  C  C185  1  0.091030  0.175200  0.724450  1
  C  C186  1  0.278830  1.104300  0.687030  1
  C  C187  1  0.105760  -0.243700  0.624720  1
  C  C188  1  0.020860  -0.194200  0.669190  1
  C  C189  1  0.001960  0.243700  0.537280  1
  C  C190  1  -0.027330  0.293000  0.639740  1
  C  C191  1  0.104010  0.376000  0.736160  1
  C  C192  1  0.135760  0.057200  0.756730  1
  H  H193  1  0.036700  1.126600  0.083000  1
  H  H194  1  0.035900  0.593300  0.106900  1
  H  H195  1  0.059000  0.852000  0.244000  1
  H  H196  1  0.094400  1.365900  0.111000  1
  H  H197  1  0.128600  1.193000  0.096900  1
  H  H198  1  0.125200  1.250300  0.166100  1
  H  H199  1  0.040100  1.197800  0.210700  1
  H  H200  1  -0.009800  1.114600  0.168400  1
  H  H201  1  0.009200  1.317100  0.156700  1
  H  H202  1  -0.021600  0.658900  0.020100  1
  H  H203  1  0.032600  0.761800  0.015400  1
  H  H204  1  -0.016800  0.872600  0.033100  1
  H  H205  1  -0.046200  0.823100  0.136100  1
  H  H206  1  -0.015300  0.681300  0.182900  1
  H  H207  1  -0.050900  0.609700  0.122400  1
  H  H208  1  0.136100  0.593100  0.219000  1
  H  H209  1  0.074800  0.549100  0.216800  1
  H  H210  1  0.109500  0.600900  0.280300  1
  H  H211  1  0.141600  0.913000  0.300400  1
  H  H212  1  0.126300  1.071300  0.251500  1
  H  H213  1  0.168000  0.919200  0.239000  1
  H  H214  1  0.207900  0.500200  0.114200  1
  H  H215  1  0.159400  1.082700  0.010300  1
  H  H216  1  0.340600  0.417300  -0.010300  1
  H  H217  1  0.292100  0.999800  -0.114200  1
  H  H218  1  0.231000  0.203800  0.164100  1
  H  H219  1  0.137500  1.379000  -0.037800  1
  H  H220  1  0.362500  0.121000  0.037800  1
  H  H221  1  0.269000  1.296200  -0.164100  1
  H  H222  1  0.463300  0.373400  -0.083000  1
  H  H223  1  0.464100  0.906700  -0.106900  1
  H  H224  1  0.441000  0.648000  -0.244000  1
  H  H225  1  0.405600  0.134100  -0.111000  1
  H  H226  1  0.371400  0.307000  -0.096900  1
  H  H227  1  0.374800  0.249700  -0.166100  1
  H  H228  1  0.459900  0.302200  -0.210700  1
  H  H229  1  0.509800  0.385400  -0.168400  1
  H  H230  1  0.490800  0.182900  -0.156700  1
  H  H231  1  0.521600  0.841100  -0.020100  1
  H  H232  1  0.467400  0.738200  -0.015400  1
  H  H233  1  0.516800  0.627400  -0.033100  1
  H  H234  1  0.546200  0.676900  -0.136100  1
  H  H235  1  0.515300  0.818700  -0.182900  1
  H  H236  1  0.550900  0.890300  -0.122400  1
  H  H237  1  0.363900  0.906900  -0.219000  1
  H  H238  1  0.425200  0.950900  -0.216800  1
  H  H239  1  0.390500  0.899100  -0.280300  1
  H  H240  1  0.358400  0.587000  -0.300400  1
  H  H241  1  0.373700  0.428700  -0.251500  1
  H  H242  1  0.332000  0.580800  -0.239000  1
  H  H243  1  0.963300  1.126600  0.417000  1
  H  H244  1  0.964100  0.593300  0.393100  1
  H  H245  1  0.941000  0.852000  0.256000  1
  H  H246  1  0.905600  1.365900  0.389000  1
  H  H247  1  0.871400  1.193000  0.403100  1
  H  H248  1  0.874800  1.250300  0.333900  1
  H  H249  1  0.959900  1.197800  0.289300  1
  H  H250  1  1.009800  1.114600  0.331600  1
  H  H251  1  0.990800  1.317100  0.343300  1
  H  H252  1  1.021600  0.658900  0.479900  1
  H  H253  1  0.967400  0.761800  0.484600  1
  H  H254  1  1.016800  0.872600  0.466900  1
  H  H255  1  1.046200  0.823100  0.363900  1
  H  H256  1  1.015300  0.681300  0.317100  1
  H  H257  1  1.050900  0.609700  0.377600  1
  H  H258  1  0.863900  0.593100  0.281000  1
  H  H259  1  0.925200  0.549100  0.283200  1
  H  H260  1  0.890500  0.600900  0.219700  1
  H  H261  1  0.858400  0.913000  0.199600  1
  H  H262  1  0.873700  1.071300  0.248500  1
  H  H263  1  0.832000  0.919200  0.261000  1
  H  H264  1  0.792100  0.500200  0.385800  1
  H  H265  1  0.840600  1.082700  0.489700  1
  H  H266  1  0.659400  0.417300  0.510300  1
  H  H267  1  0.707900  0.999800  0.614200  1
  H  H268  1  0.769000  0.203800  0.335900  1
  H  H269  1  0.862500  1.379000  0.537800  1
  H  H270  1  0.637500  0.121000  0.462200  1
  H  H271  1  0.731000  1.296200  0.664100  1
  H  H272  1  0.536700  0.373400  0.583000  1
  H  H273  1  0.535900  0.906700  0.606900  1
  H  H274  1  0.559000  0.648000  0.744000  1
  H  H275  1  0.594400  0.134100  0.611000  1
  H  H276  1  0.628600  0.307000  0.596900  1
  H  H277  1  0.625200  0.249700  0.666100  1
  H  H278  1  0.540100  0.302200  0.710700  1
  H  H279  1  0.490200  0.385400  0.668400  1
  H  H280  1  0.509200  0.182900  0.656700  1
  H  H281  1  0.478400  0.841100  0.520100  1
  H  H282  1  0.532600  0.738200  0.515400  1
  H  H283  1  0.483200  0.627400  0.533100  1
  H  H284  1  0.453800  0.676900  0.636100  1
  H  H285  1  0.484700  0.818700  0.682900  1
  H  H286  1  0.449100  0.890300  0.622400  1
  H  H287  1  0.636100  0.906900  0.719000  1
  H  H288  1  0.574800  0.950900  0.716800  1
  H  H289  1  0.609500  0.899100  0.780300  1
  H  H290  1  0.641600  0.587000  0.800400  1
  H  H291  1  0.626300  0.428700  0.751500  1
  H  H292  1  0.668000  0.580800  0.739000  1
  H  H293  1  0.536700  0.626600  0.083000  1
  H  H294  1  0.535900  0.093300  0.106900  1
  H  H295  1  0.559000  0.352000  0.244000  1
  H  H296  1  0.594400  0.865900  0.111000  1
  H  H297  1  0.628600  0.693000  0.096900  1
  H  H298  1  0.625200  0.750300  0.166100  1
  H  H299  1  0.540100  0.697800  0.210700  1
  H  H300  1  0.490200  0.614600  0.168400  1
  H  H301  1  0.509200  0.817100  0.156700  1
  H  H302  1  0.478400  0.158900  0.020100  1
  H  H303  1  0.532600  0.261800  0.015400  1
  H  H304  1  0.483200  0.372600  0.033100  1
  H  H305  1  0.453800  0.323100  0.136100  1
  H  H306  1  0.484700  0.181300  0.182900  1
  H  H307  1  0.449100  0.109700  0.122400  1
  H  H308  1  0.636100  0.093100  0.219000  1
  H  H309  1  0.574800  0.049100  0.216800  1
  H  H310  1  0.609500  0.100900  0.280300  1
  H  H311  1  0.641600  0.413000  0.300400  1
  H  H312  1  0.626300  0.571300  0.251500  1
  H  H313  1  0.668000  0.419200  0.239000  1
  H  H314  1  0.707900  0.000200  0.114200  1
  H  H315  1  0.659400  0.582700  0.010300  1
  H  H316  1  0.840600  -0.082700  -0.010300  1
  H  H317  1  0.792100  0.499800  -0.114200  1
  H  H318  1  0.731000  -0.296200  0.164100  1
  H  H319  1  0.637500  0.879000  -0.037800  1
  H  H320  1  0.862500  -0.379000  0.037800  1
  H  H321  1  0.769000  0.796200  -0.164100  1
  H  H322  1  0.963300  -0.126600  -0.083000  1
  H  H323  1  0.964100  0.406700  -0.106900  1
  H  H324  1  0.941000  0.148000  -0.244000  1
  H  H325  1  0.905600  -0.365900  -0.111000  1
  H  H326  1  0.871400  -0.193000  -0.096900  1
  H  H327  1  0.874800  -0.250300  -0.166100  1
  H  H328  1  0.959900  -0.197800  -0.210700  1
  H  H329  1  1.009800  -0.114600  -0.168400  1
  H  H330  1  0.990800  -0.317100  -0.156700  1
  H  H331  1  1.021600  0.341100  -0.020100  1
  H  H332  1  0.967400  0.238200  -0.015400  1
  H  H333  1  1.016800  0.127400  -0.033100  1
  H  H334  1  1.046200  0.176900  -0.136100  1
  H  H335  1  1.015300  0.318700  -0.182900  1
  H  H336  1  1.050900  0.390300  -0.122400  1
  H  H337  1  0.863900  0.406900  -0.219000  1
  H  H338  1  0.925200  0.450900  -0.216800  1
  H  H339  1  0.890500  0.399100  -0.280300  1
  H  H340  1  0.858400  0.087000  -0.300400  1
  H  H341  1  0.873700  -0.071300  -0.251500  1
  H  H342  1  0.832000  0.080800  -0.239000  1
  H  H343  1  0.463300  0.626600  0.417000  1
  H  H344  1  0.464100  0.093300  0.393100  1
  H  H345  1  0.441000  0.352000  0.256000  1
  H  H346  1  0.405600  0.865900  0.389000  1
  H  H347  1  0.371400  0.693000  0.403100  1
  H  H348  1  0.374800  0.750300  0.333900  1
  H  H349  1  0.459900  0.697800  0.289300  1
  H  H350  1  0.509800  0.614600  0.331600  1
  H  H351  1  0.490800  0.817100  0.343300  1
  H  H352  1  0.521600  0.158900  0.479900  1
  H  H353  1  0.467400  0.261800  0.484600  1
  H  H354  1  0.516800  0.372600  0.466900  1
  H  H355  1  0.546200  0.323100  0.363900  1
  H  H356  1  0.515300  0.181300  0.317100  1
  H  H357  1  0.550900  0.109700  0.377600  1
  H  H358  1  0.363900  0.093100  0.281000  1
  H  H359  1  0.425200  0.049100  0.283200  1
  H  H360  1  0.390500  0.100900  0.219700  1
  H  H361  1  0.358400  0.413000  0.199600  1
  H  H362  1  0.373700  0.571300  0.248500  1
  H  H363  1  0.332000  0.419200  0.261000  1
  H  H364  1  0.292100  0.000200  0.385800  1
  H  H365  1  0.340600  0.582700  0.489700  1
  H  H366  1  0.159400  -0.082700  0.510300  1
  H  H367  1  0.207900  0.499800  0.614200  1
  H  H368  1  0.269000  -0.296200  0.335900  1
  H  H369  1  0.362500  0.879000  0.537800  1
  H  H370  1  0.137500  -0.379000  0.462200  1
  H  H371  1  0.231000  0.796200  0.664100  1
  H  H372  1  0.036700  -0.126600  0.583000  1
  H  H373  1  0.035900  0.406700  0.606900  1
  H  H374  1  0.059000  0.148000  0.744000  1
  H  H375  1  0.094400  -0.365900  0.611000  1
  H  H376  1  0.128600  -0.193000  0.596900  1
  H  H377  1  0.125200  -0.250300  0.666100  1
  H  H378  1  0.040100  -0.197800  0.710700  1
  H  H379  1  -0.009800  -0.114600  0.668400  1
  H  H380  1  0.009200  -0.317100  0.656700  1
  H  H381  1  -0.021600  0.341100  0.520100  1
  H  H382  1  0.032600  0.238200  0.515400  1
  H  H383  1  -0.016800  0.127400  0.533100  1
  H  H384  1  -0.046200  0.176900  0.636100  1
  H  H385  1  -0.015300  0.318700  0.682900  1
  H  H386  1  -0.050900  0.390300  0.622400  1
  H  H387  1  0.136100  0.406900  0.719000  1
  H  H388  1  0.074800  0.450900  0.716800  1
  H  H389  1  0.109500  0.399100  0.780300  1
  H  H390  1  0.141600  0.087000  0.800400  1
  H  H391  1  0.126300  -0.071300  0.751500  1
  H  H392  1  0.168000  0.080800  0.739000  1
  N  N393  1  0.272960  -0.213200  0.221730  1
  N  N394  1  0.115210  1.781700  -0.113880  1
  N  N395  1  0.384790  -0.281700  0.113880  1
  N  N396  1  0.227040  1.713200  -0.221730  1
  N  N397  1  0.727040  -0.213200  0.278270  1
  N  N398  1  0.884790  1.781700  0.613880  1
  N  N399  1  0.615210  -0.281700  0.386120  1
  N  N400  1  0.772960  1.713200  0.721730  1
  N  N401  1  0.772960  -0.713200  0.221730  1
  N  N402  1  0.615210  1.281700  -0.113880  1
  N  N403  1  0.884790  -0.781700  0.113880  1
  N  N404  1  0.727040  1.213200  -0.221730  1
  N  N405  1  0.227040  -0.713200  0.278270  1
  N  N406  1  0.384790  1.281700  0.613880  1
  N  N407  1  0.115210  -0.781700  0.386120  1
  N  N408  1  0.272960  1.213200  0.721730  1
  Si  Si409  1  0.073900  0.874590  0.140730  1.0
  Si  Si410  1  0.426100  0.625410  -0.140730  1
  Si  Si411  1  0.926100  0.874590  0.359270  1.0
  Si  Si412  1  0.573900  0.625410  0.640730  1
  Si  Si413  1  0.573900  0.374590  0.140730  1.0
  Si  Si414  1  0.926100  0.125410  -0.140730  1
  Si  Si415  1  0.426100  0.374590  0.359270  1.0
  Si  Si416  1  0.073900  0.125410  0.640730  1
