# generated using pymatgen
data_SiH29C24
_symmetry_space_group_name_H-M   'P 1'
_cell_length_a   7.29820000
_cell_length_b   15.65470000
_cell_length_c   18.08880000
_cell_angle_alpha   86.14680000
_cell_angle_beta   87.62380000
_cell_angle_gamma   89.98530000
_symmetry_Int_Tables_number   1
_chemical_formula_structural   SiH29C24
_chemical_formula_sum   'Si4 H116 C96'
_cell_volume   2060.21451167
_cell_formula_units_Z   4
loop_
 _symmetry_equiv_pos_site_id
 _symmetry_equiv_pos_as_xyz
  1  'x, y, z'
loop_
 _atom_site_type_symbol
 _atom_site_label
 _atom_site_symmetry_multiplicity
 _atom_site_fract_x
 _atom_site_fract_y
 _atom_site_fract_z
 _atom_site_occupancy
  C  C1  1  1.004600  0.978590  0.724760  1
  C  C2  1  0.716700  0.955190  0.844260  1
  C  C3  1  1.088900  0.859260  0.854280  1
  C  C4  1  1.069500  1.056400  0.869290  1
  C  C5  1  1.012900  0.985370  0.657460  1
  C  C6  1  0.657800  0.942350  0.924680  1
  C  C7  1  0.991600  0.783360  0.821040  1
  C  C8  1  1.105300  0.843380  0.938460  1
  C  C9  1  1.273500  1.066510  0.847770  1
  C  C10  1  0.962800  1.138980  0.849850  1
  C  C11  1  1.008800  0.992560  0.578240  1
  C  C12  1  0.577300  0.873710  0.956120  1
  C  C13  1  1.152200  1.034970  0.535320  1
  C  C14  1  0.857100  0.957160  0.544190  1
  C  C15  1  1.305900  1.069370  0.567790  1
  C  C16  1  1.142900  1.042840  0.455810  1
  C  C17  1  0.847800  0.965030  0.464680  1
  C  C18  1  0.713000  0.914620  0.586190  1
  C  C19  1  1.448900  1.109680  0.525860  1
  C  C20  1  0.991200  1.007440  0.421760  1
  C  C21  1  1.287000  1.085380  0.413810  1
  C  C22  1  0.694100  0.930630  0.432210  1
  C  C23  1  0.560800  0.881580  0.553870  1
  C  C24  1  1.607100  1.143320  0.560070  1
  C  C25  1  1.439200  1.118420  0.446130  1
  C  C26  1  0.987100  1.014630  0.342540  1
  C  C27  1  0.551100  0.890320  0.474140  1
  C  C28  1  0.415000  0.839460  0.598310  1
  C  C29  1  1.741900  1.182050  0.515010  1
  C  C30  1  1.621500  1.134390  0.642710  1
  C  C31  1  1.585000  1.160540  0.401690  1
  C  C32  1  0.995400  1.021410  0.275240  1
  C  C33  1  0.392900  0.856680  0.439930  1
  C  C34  1  0.268400  0.809450  0.563160  1
  C  C35  1  0.422600  0.830330  0.681420  1
  C  C36  1  1.731600  1.190550  0.436840  1
  C  C37  1  1.577400  1.169670  0.318580  1
  C  C38  1  0.258100  0.817950  0.484990  1
  C  C39  1  0.378500  0.865610  0.357290  1
  C  C40  1  1.283300  1.044810  0.155740  1
  C  C41  1  0.911100  1.140740  0.145720  1
  C  C42  1  0.930500  0.943600  0.130710  1
  C  C43  1  1.342200  1.057650  0.075320  1
  C  C44  1  1.008400  1.216640  0.178960  1
  C  C45  1  0.894700  1.156620  0.061540  1
  C  C46  1  0.726500  0.933490  0.152230  1
  C  C47  1  1.037200  0.861020  0.150150  1
  C  C48  1  1.422700  1.126290  0.043880  1
  C  C49  1  1.437000  0.478490  0.724740  1
  C  C50  1  1.182000  0.437000  0.854440  1
  C  C51  1  1.518600  0.549960  0.871910  1
  C  C52  1  1.576700  0.358660  0.844920  1
  C  C53  1  1.449400  0.485790  0.657730  1
  C  C54  1  1.134900  0.431310  0.935710  1
  C  C55  1  1.402700  0.630820  0.854920  1
  C  C56  1  1.721400  0.567860  0.850240  1
  C  C57  1  1.585200  0.332550  0.927580  1
  C  C58  1  1.517500  0.284840  0.801640  1
  C  C59  1  1.473500  0.493150  0.578450  1
  C  C60  1  1.064700  0.365030  0.973190  1
  C  C61  1  1.632300  0.457140  0.545000  1
  C  C62  1  1.340200  0.535560  0.534160  1
  C  C63  1  1.766900  0.414750  0.587570  1
  C  C64  1  1.659800  0.464440  0.465840  1
  C  C65  1  1.367700  0.542860  0.455000  1
  C  C66  1  1.179900  0.570020  0.566180  1
  C  C67  1  1.925000  0.381030  0.556060  1
  C  C68  1  1.526500  0.506850  0.421550  1
  C  C69  1  1.820100  0.429980  0.433820  1
  C  C70  1  1.233100  0.585250  0.412430  1
  C  C71  1  1.045700  0.610680  0.523610  1
  C  C72  1  2.062200  0.339170  0.601100  1
  C  C73  1  1.954300  0.389320  0.476390  1
  C  C74  1  1.550600  0.514210  0.342270  1
  C  C75  1  1.075000  0.618970  0.443940  1
  C  C76  1  0.879900  0.644830  0.556730  1
  C  C77  1  2.215300  0.308400  0.566900  1
  C  C78  1  2.033300  0.330370  0.684140  1
  C  C79  1  2.120100  0.355170  0.443270  1
  C  C80  1  1.563000  0.521510  0.275260  1
  C  C81  1  0.937800  0.660830  0.398900  1
  C  C82  1  0.755500  0.683380  0.511840  1
  C  C83  1  0.846500  0.637140  0.639630  1
  C  C84  1  2.244500  0.316620  0.488160  1
  C  C85  1  2.153500  0.362860  0.360370  1
  C  C86  1  0.784700  0.691600  0.433100  1
  C  C87  1  0.966700  0.669630  0.315860  1
  C  C88  1  1.818000  0.563000  0.145560  1
  C  C89  1  1.481400  0.450040  0.128090  1
  C  C90  1  1.423300  0.641340  0.155080  1
  C  C91  1  1.865100  0.568690  0.064290  1
  C  C92  1  1.597300  0.369180  0.145080  1
  C  C93  1  1.278600  0.432140  0.149760  1
  C  C94  1  1.414800  0.667450  0.072420  1
  C  C95  1  1.482500  0.715160  0.198360  1
  C  C96  1  1.935300  0.634970  0.026810  1
  H  H97  1  0.660500  1.008600  0.823300  1
  H  H98  1  0.668300  0.907200  0.817800  1
  H  H99  1  1.216400  0.862500  0.831800  1
  H  H100  1  1.058000  1.044500  0.924300  1
  H  H101  1  0.680800  0.987800  0.955300  1
  H  H102  1  1.061900  0.730800  0.830900  1
  H  H103  1  0.983500  0.795100  0.767400  1
  H  H104  1  0.867900  0.776300  0.843800  1
  H  H105  1  0.982400  0.839400  0.962500  1
  H  H106  1  1.172500  0.890800  0.957500  1
  H  H107  1  1.171300  0.789700  0.949100  1
  H  H108  1  1.289300  1.076500  0.793800  1
  H  H109  1  1.338700  1.014300  0.864000  1
  H  H110  1  1.323400  1.115300  0.871700  1
  H  H111  1  1.018600  1.186800  0.873100  1
  H  H112  1  0.835000  1.132000  0.868100  1
  H  H113  1  0.966800  1.150800  0.795900  1
  H  H114  1  0.551800  0.826800  0.927500  1
  H  H115  1  0.544400  0.870800  1.007600  1
  H  H116  1  1.311900  1.064800  0.620300  1
  H  H117  1  0.720200  0.908300  0.638600  1
  H  H118  1  1.279800  1.091700  0.361400  1
  H  H119  1  0.688100  0.935200  0.379700  1
  H  H120  1  1.846400  1.204100  0.536900  1
  H  H121  1  1.736800  1.160100  0.656300  1
  H  H122  1  1.619100  1.073600  0.659600  1
  H  H123  1  1.518100  1.163700  0.666300  1
  H  H124  1  0.170700  0.782100  0.591900  1
  H  H125  1  0.315400  0.797900  0.702200  1
  H  H126  1  0.534700  0.799900  0.695300  1
  H  H127  1  0.422700  0.887200  0.700900  1
  H  H128  1  1.829300  1.217900  0.408100  1
  H  H129  1  1.684600  1.202100  0.297800  1
  H  H130  1  1.465300  1.200100  0.304700  1
  H  H131  1  1.577300  1.112800  0.299100  1
  H  H132  1  0.153600  0.795900  0.463100  1
  H  H133  1  0.263200  0.839900  0.343700  1
  H  H134  1  0.380900  0.926400  0.340400  1
  H  H135  1  0.481900  0.836300  0.333700  1
  H  H136  1  1.339500  0.991400  0.176700  1
  H  H137  1  1.331700  1.092800  0.182200  1
  H  H138  1  0.783600  1.137500  0.168200  1
  H  H139  1  0.942000  0.955500  0.075700  1
  H  H140  1  1.319200  1.012200  0.044700  1
  H  H141  1  0.938100  1.269200  0.169100  1
  H  H142  1  1.016500  1.204900  0.232600  1
  H  H143  1  1.132100  1.223700  0.156200  1
  H  H144  1  1.017600  1.160600  0.037500  1
  H  H145  1  0.827500  1.109200  0.042500  1
  H  H146  1  0.828700  1.210300  0.050900  1
  H  H147  1  0.710700  0.923500  0.206200  1
  H  H148  1  0.661300  0.985700  0.136000  1
  H  H149  1  0.676600  0.884700  0.128300  1
  H  H150  1  0.981400  0.813200  0.126900  1
  H  H151  1  1.165000  0.868000  0.131900  1
  H  H152  1  1.033200  0.849200  0.204100  1
  H  H153  1  1.448200  1.173200  0.072500  1
  H  H154  1  1.455600  1.129200  -0.007600  1
  H  H155  1  1.108600  0.483700  0.830900  1
  H  H156  1  1.143200  0.383000  0.834200  1
  H  H157  1  1.509100  0.535900  0.926700  1
  H  H158  1  1.704200  0.374500  0.826700  1
  H  H159  1  1.158500  0.480300  0.962100  1
  H  H160  1  1.450100  0.678200  0.881400  1
  H  H161  1  1.274800  0.619400  0.871200  1
  H  H162  1  1.409700  0.646200  0.801400  1
  H  H163  1  1.735800  0.578700  0.796300  1
  H  H164  1  1.795200  0.518100  0.866000  1
  H  H165  1  1.762500  0.618100  0.874600  1
  H  H166  1  1.462200  0.316700  0.947700  1
  H  H167  1  1.631300  0.380700  0.953500  1
  H  H168  1  1.667700  0.283500  0.934600  1
  H  H169  1  1.603800  0.237300  0.808800  1
  H  H170  1  1.516100  0.303400  0.748800  1
  H  H171  1  1.394300  0.266000  0.819300  1
  H  H172  1  1.039000  0.314700  0.948900  1
  H  H173  1  1.038700  0.366700  1.025000  1
  H  H174  1  1.748300  0.409100  0.640000  1
  H  H175  1  1.162200  0.565500  0.618600  1
  H  H176  1  1.837800  0.434500  0.381400  1
  H  H177  1  1.251700  0.590900  0.360000  1
  H  H178  1  2.305600  0.280600  0.596200  1
  H  H179  1  2.136400  0.299100  0.706000  1
  H  H180  1  1.919100  0.298900  0.697200  1
  H  H181  1  2.025600  0.387400  0.703400  1
  H  H182  1  0.646000  0.705500  0.533400  1
  H  H183  1  0.729200  0.664000  0.652500  1
  H  H184  1  0.842900  0.576500  0.657100  1
  H  H185  1  0.945700  0.665900  0.663200  1
  H  H186  1  2.354000  0.294500  0.466600  1
  H  H187  1  2.270800  0.336000  0.347500  1
  H  H188  1  2.157100  0.423500  0.342900  1
  H  H189  1  2.054300  0.334100  0.336800  1
  H  H190  1  0.694400  0.719400  0.403800  1
  H  H191  1  0.863600  0.700900  0.294000  1
  H  H192  1  1.080900  0.701100  0.302800  1
  H  H193  1  0.974400  0.612600  0.296600  1
  H  H194  1  1.891400  0.516300  0.169100  1
  H  H195  1  1.856800  0.617000  0.165800  1
  H  H196  1  1.490900  0.464100  0.073300  1
  H  H197  1  1.295800  0.625500  0.173300  1
  H  H198  1  1.841500  0.519700  0.037900  1
  H  H199  1  1.549900  0.321800  0.118600  1
  H  H200  1  1.725200  0.380600  0.128800  1
  H  H201  1  1.590300  0.353800  0.198600  1
  H  H202  1  1.264200  0.421300  0.203700  1
  H  H203  1  1.204800  0.481900  0.134000  1
  H  H204  1  1.237500  0.381900  0.125400  1
  H  H205  1  1.537800  0.683300  0.052300  1
  H  H206  1  1.368700  0.619300  0.046500  1
  H  H207  1  1.332300  0.716500  0.065400  1
  H  H208  1  1.396200  0.762700  0.191200  1
  H  H209  1  1.483900  0.696600  0.251200  1
  H  H210  1  1.605700  0.734000  0.180700  1
  H  H211  1  1.961000  0.685300  0.051100  1
  H  H212  1  1.961300  0.633300  -0.025000  1
  Si  Si213  1  0.972490  0.961920  0.825620  1.0
  Si  Si214  1  1.027510  1.038080  0.174380  1
  Si  Si215  1  1.428090  0.456290  0.825690  1.0
  Si  Si216  1  1.571910  0.543710  0.174310  1
