# generated using pymatgen
data_SiH38C32S3F
_symmetry_space_group_name_H-M   'P 1'
_cell_length_a   10.25140000
_cell_length_b   17.66010000
_cell_length_c   16.73530000
_cell_angle_alpha   90.00000000
_cell_angle_beta   91.68700000
_cell_angle_gamma   90.00000000
_symmetry_Int_Tables_number   1
_chemical_formula_structural   SiH38C32S3F
_chemical_formula_sum   'Si4 H152 C128 S12 F4'
_cell_volume   3028.45804154
_cell_formula_units_Z   4
loop_
 _symmetry_equiv_pos_site_id
 _symmetry_equiv_pos_as_xyz
  1  'x, y, z'
loop_
 _atom_site_type_symbol
 _atom_site_label
 _atom_site_symmetry_multiplicity
 _atom_site_fract_x
 _atom_site_fract_y
 _atom_site_fract_z
 _atom_site_occupancy
  C  C1  1  0.985740  0.393020  0.284790  1
  C  C2  1  0.904200  0.375100  0.110700  1
  C  C3  1  1.173400  0.319300  0.178800  1
  C  C4  1  0.912800  0.239900  0.216300  1
  C  C5  1  0.985500  0.425800  0.347630  1
  C  C6  1  0.917700  0.337600  0.029000  1
  C  C7  1  1.245200  0.392100  0.160000  1
  C  C8  1  0.973700  0.196800  0.285900  1
  C  C9  1  0.991660  0.463030  0.423330  1
  C  C10  1  0.830800  0.376400  -0.035900  1
  C  C11  1  1.394500  0.383600  0.161500  1
  C  C12  1  0.883100  0.136900  0.321000  1
  C  C13  1  1.099200  0.458200  0.465200  1
  C  C14  1  0.880900  0.506800  0.459900  1
  C  C15  1  0.833800  0.331900  -0.115600  1
  C  C16  1  1.453500  0.374600  0.244500  1
  C  C17  1  0.940800  0.094600  0.390600  1
  C  C18  1  1.119100  0.493200  0.540100  1
  C  C19  1  0.900800  0.541800  0.534800  1
  C  C20  1  0.752500  0.521300  0.429400  1
  C  C21  1  0.966200  0.333700  -0.152600  1
  C  C22  1  1.599700  0.363000  0.245300  1
  C  C23  1  0.844600  0.041100  0.429000  1
  C  C24  1  1.008340  0.536970  0.576670  1
  C  C25  1  1.247500  0.478700  0.570600  1
  C  C26  1  1.324300  0.438000  0.523200  1
  C  C27  1  0.675700  0.562000  0.476800  1
  C  C28  1  1.014500  0.574200  0.652370  1
  C  C29  1  1.458000  0.411000  0.540000  1
  C  C30  1  0.542000  0.589000  0.460000  1
  C  C31  1  1.014260  0.606980  0.715210  1
  C  C32  1  1.528500  0.368600  0.494500  1
  C  C33  1  0.471500  0.631400  0.505500  1
  C  C34  1  1.657700  0.350500  0.525800  1
  C  C35  1  1.680600  0.388000  0.599200  1
  C  C36  1  0.342300  0.649500  0.474200  1
  C  C37  1  0.319400  0.612000  0.400800  1
  C  C38  1  1.095800  0.624900  0.889300  1
  C  C39  1  0.826600  0.680700  0.821200  1
  C  C40  1  1.087200  0.760100  0.783700  1
  C  C41  1  1.756600  0.309900  0.486600  1
  C  C42  1  1.805200  0.386100  0.635200  1
  C  C43  1  0.243400  0.690100  0.513400  1
  C  C44  1  0.194800  0.613900  0.364800  1
  C  C45  1  1.082300  0.662400  0.971000  1
  C  C46  1  0.754800  0.607900  0.840000  1
  C  C47  1  1.026300  0.803200  0.714100  1
  C  C48  1  1.878500  0.307200  0.526000  1
  C  C49  1  1.902100  0.344200  0.599600  1
  C  C50  1  0.121500  0.692800  0.474000  1
  C  C51  1  0.097900  0.655800  0.400400  1
  C  C52  1  1.169200  0.623600  1.035900  1
  C  C53  1  0.605500  0.616400  0.838500  1
  C  C54  1  1.116900  0.863100  0.679000  1
  C  C55  1  2.036900  0.334300  0.628600  1
  C  C56  1  -0.036900  0.665700  0.371400  1
  C  C57  1  1.166200  0.668100  1.115600  1
  C  C58  1  0.546500  0.625400  0.755500  1
  C  C59  1  1.059200  0.905400  0.609400  1
  C  C60  1  2.105900  0.292100  0.579600  1
  C  C61  1  -0.105900  0.707900  0.420400  1
  C  C62  1  1.033800  0.666300  1.152600  1
  C  C63  1  0.400300  0.637000  0.754700  1
  C  C64  1  1.155400  0.958900  0.571000  1
  C  C65  1  0.514260  0.893020  0.215210  1
  C  C66  1  0.595800  0.875100  0.389300  1
  C  C67  1  0.326600  0.819300  0.321200  1
  C  C68  1  0.587200  0.739900  0.283700  1
  C  C69  1  0.514500  0.925800  0.152370  1
  C  C70  1  0.582300  0.837600  0.471000  1
  C  C71  1  0.254800  0.892100  0.340000  1
  C  C72  1  0.526300  0.696800  0.214100  1
  C  C73  1  0.508340  0.963030  0.076670  1
  C  C74  1  0.669200  0.876400  0.535900  1
  C  C75  1  0.105500  0.883600  0.338500  1
  C  C76  1  0.616900  0.636900  0.179000  1
  C  C77  1  0.400800  0.958200  0.034800  1
  C  C78  1  0.619100  1.006800  0.040100  1
  C  C79  1  0.666200  0.831900  0.615600  1
  C  C80  1  0.046500  0.874600  0.255500  1
  C  C81  1  0.559200  0.594600  0.109400  1
  C  C82  1  0.380900  0.993200  -0.040100  1
  C  C83  1  0.599200  1.041800  -0.034800  1
  C  C84  1  0.747500  1.021300  0.070600  1
  C  C85  1  0.533800  0.833700  0.652600  1
  C  C86  1  -0.099700  0.863000  0.254700  1
  C  C87  1  0.655400  0.541100  0.071000  1
  C  C88  1  0.491660  1.036970  -0.076670  1
  C  C89  1  0.252500  0.978700  -0.070600  1
  C  C90  1  0.175700  0.938000  -0.023200  1
  C  C91  1  0.824300  1.062000  0.023200  1
  C  C92  1  0.485500  1.074200  -0.152370  1
  C  C93  1  0.042000  0.911000  -0.040000  1
  C  C94  1  0.958000  1.089000  0.040000  1
  C  C95  1  0.485740  1.106980  -0.215210  1
  C  C96  1  -0.028500  0.868600  0.005500  1
  C  C97  1  1.028500  1.131400  -0.005500  1
  C  C98  1  -0.157700  0.850500  -0.025800  1
  C  C99  1  -0.180600  0.888000  -0.099200  1
  C  C100  1  1.157700  1.149500  0.025800  1
  C  C101  1  1.180600  1.112000  0.099200  1
  C  C102  1  0.404200  1.124900  -0.389300  1
  C  C103  1  0.673400  1.180700  -0.321200  1
  C  C104  1  0.412800  1.260100  -0.283700  1
  C  C105  1  -0.256600  0.809900  0.013400  1
  C  C106  1  -0.305200  0.886100  -0.135200  1
  C  C107  1  1.256600  1.190100  -0.013400  1
  C  C108  1  1.305200  1.113900  0.135200  1
  C  C109  1  0.417700  1.162400  -0.471000  1
  C  C110  1  0.745200  1.107900  -0.340000  1
  C  C111  1  0.473700  1.303200  -0.214100  1
  C  C112  1  -0.378500  0.807200  -0.026000  1
  C  C113  1  -0.402100  0.844200  -0.099600  1
  C  C114  1  1.378500  1.192800  0.026000  1
  C  C115  1  1.402100  1.155800  0.099600  1
  C  C116  1  0.330800  1.123600  -0.535900  1
  C  C117  1  0.894500  1.116400  -0.338500  1
  C  C118  1  0.383100  1.363100  -0.179000  1
  C  C119  1  -0.536900  0.834300  -0.128600  1
  C  C120  1  1.536900  1.165700  0.128600  1
  C  C121  1  0.333800  1.168100  -0.615600  1
  C  C122  1  0.953500  1.125400  -0.255500  1
  C  C123  1  0.440800  1.405400  -0.109400  1
  C  C124  1  -0.605900  0.792100  -0.079600  1
  C  C125  1  1.605900  1.207900  0.079600  1
  C  C126  1  0.466200  1.166300  -0.652600  1
  C  C127  1  1.099700  1.137000  -0.254700  1
  C  C128  1  0.344600  1.458900  -0.071000  1
  F  F129  1  0.710200  0.495720  0.355940  1
  F  F130  1  1.289800  0.504280  0.644060  1
  F  F131  1  0.789800  0.995720  0.144060  1
  F  F132  1  0.210200  1.004280  -0.144060  1
  H  H133  1  0.810347  0.377512  0.122710  1
  H  H134  1  0.936452  0.427786  0.107140  1
  H  H135  1  1.214924  0.296800  0.227429  1
  H  H136  1  1.186107  0.283357  0.134334  1
  H  H137  1  0.820239  0.250127  0.227589  1
  H  H138  1  0.914744  0.207592  0.168009  1
  H  H139  1  0.892969  0.283573  0.032775  1
  H  H140  1  1.009928  0.340105  0.013291  1
  H  H141  1  1.221263  0.431227  0.199261  1
  H  H142  1  1.215792  0.409979  0.106369  1
  H  H143  1  0.999359  0.233247  0.328490  1
  H  H144  1  1.054036  0.171586  0.268061  1
  H  H145  1  0.862101  0.428731  -0.044459  1
  H  H146  1  0.739952  0.379202  -0.017617  1
  H  H147  1  1.417742  0.338937  0.129169  1
  H  H148  1  1.432981  0.428808  0.136337  1
  H  H149  1  0.802163  0.162197  0.337798  1
  H  H150  1  0.858500  0.100239  0.278398  1
  H  H151  1  0.808916  0.278628  -0.105808  1
  H  H152  1  0.768483  0.353832  -0.153781  1
  H  H153  1  1.412426  0.330697  0.270574  1
  H  H154  1  1.433664  0.420281  0.276196  1
  H  H155  1  0.973099  0.131300  0.431196  1
  H  H156  1  1.016496  0.064946  0.372619  1
  H  H157  1  0.963169  0.304931  -0.202657  1
  H  H158  1  0.990517  0.386282  -0.163506  1
  H  H159  1  1.030953  0.311072  -0.115529  1
  H  H160  1  1.632440  0.357547  0.300585  1
  H  H161  1  1.620087  0.317207  0.215069  1
  H  H162  1  1.641337  0.406845  0.220694  1
  H  H163  1  0.887923  0.015033  0.474115  1
  H  H164  1  0.770293  0.070172  0.448092  1
  H  H165  1  0.813718  0.003775  0.389477  1
  H  H166  1  1.497151  0.350418  0.444094  1
  H  H167  1  0.502849  0.649582  0.555906  1
  H  H168  1  1.189653  0.622488  0.877290  1
  H  H169  1  1.063548  0.572214  0.892860  1
  H  H170  1  0.785076  0.703200  0.772571  1
  H  H171  1  0.813893  0.716643  0.865666  1
  H  H172  1  1.179761  0.749873  0.772411  1
  H  H173  1  1.085256  0.792408  0.831991  1
  H  H174  1  1.740793  0.285843  0.436463  1
  H  H175  1  1.823272  0.413116  0.683312  1
  H  H176  1  0.259207  0.714157  0.563537  1
  H  H177  1  0.176728  0.586884  0.316688  1
  H  H178  1  1.107031  0.716427  0.967225  1
  H  H179  1  0.990072  0.659895  0.986709  1
  H  H180  1  0.778737  0.568773  0.800739  1
  H  H181  1  0.784208  0.590021  0.893631  1
  H  H182  1  1.000641  0.766753  0.671510  1
  H  H183  1  0.945964  0.828414  0.731939  1
  H  H184  1  1.137899  0.571269  1.044459  1
  H  H185  1  1.260048  0.620798  1.017617  1
  H  H186  1  0.582258  0.661063  0.870831  1
  H  H187  1  0.567019  0.571192  0.863663  1
  H  H188  1  1.197837  0.837803  0.662202  1
  H  H189  1  1.141500  0.899761  0.721602  1
  H  H190  1  2.071274  0.355701  0.676843  1
  H  H191  1  -0.071274  0.644299  0.323157  1
  H  H192  1  1.191084  0.721372  1.105808  1
  H  H193  1  1.231517  0.646168  1.153781  1
  H  H194  1  0.587574  0.669303  0.729426  1
  H  H195  1  0.566336  0.579719  0.723804  1
  H  H196  1  1.026901  0.868700  0.568804  1
  H  H197  1  0.983504  0.935054  0.627381  1
  H  H198  1  2.195428  0.280217  0.589065  1
  H  H199  1  -0.195428  0.719783  0.410935  1
  H  H200  1  1.036831  0.695069  1.202657  1
  H  H201  1  1.009483  0.613718  1.163506  1
  H  H202  1  0.969047  0.688928  1.115529  1
  H  H203  1  0.367560  0.642453  0.699415  1
  H  H204  1  0.379913  0.682793  0.784931  1
  H  H205  1  0.358663  0.593155  0.779306  1
  H  H206  1  1.112077  0.984967  0.525885  1
  H  H207  1  1.229707  0.929828  0.551908  1
  H  H208  1  1.186282  0.996225  0.610523  1
  H  H209  1  0.689653  0.877512  0.377290  1
  H  H210  1  0.563548  0.927786  0.392860  1
  H  H211  1  0.285076  0.796800  0.272571  1
  H  H212  1  0.313893  0.783357  0.365666  1
  H  H213  1  0.679761  0.750127  0.272411  1
  H  H214  1  0.585256  0.707592  0.331991  1
  H  H215  1  0.607031  0.783573  0.467225  1
  H  H216  1  0.490072  0.840105  0.486709  1
  H  H217  1  0.278737  0.931227  0.300739  1
  H  H218  1  0.284208  0.909979  0.393631  1
  H  H219  1  0.500641  0.733247  0.171510  1
  H  H220  1  0.445964  0.671586  0.231939  1
  H  H221  1  0.637899  0.928731  0.544459  1
  H  H222  1  0.760048  0.879202  0.517617  1
  H  H223  1  0.082258  0.838937  0.370831  1
  H  H224  1  0.067019  0.928808  0.363663  1
  H  H225  1  0.697837  0.662197  0.162202  1
  H  H226  1  0.641500  0.600239  0.221602  1
  H  H227  1  0.691084  0.778628  0.605808  1
  H  H228  1  0.731517  0.853832  0.653781  1
  H  H229  1  0.087574  0.830697  0.229426  1
  H  H230  1  0.066336  0.920281  0.223804  1
  H  H231  1  0.526901  0.631300  0.068804  1
  H  H232  1  0.483504  0.564946  0.127381  1
  H  H233  1  0.536831  0.804931  0.702657  1
  H  H234  1  0.509483  0.886282  0.663506  1
  H  H235  1  0.469047  0.811072  0.615529  1
  H  H236  1  -0.132440  0.857547  0.199415  1
  H  H237  1  -0.120087  0.817207  0.284931  1
  H  H238  1  -0.141337  0.906845  0.279306  1
  H  H239  1  0.612077  0.515033  0.025885  1
  H  H240  1  0.729707  0.570172  0.051908  1
  H  H241  1  0.686282  0.503775  0.110523  1
  H  H242  1  0.002849  0.850418  0.055906  1
  H  H243  1  0.997151  1.149582  -0.055906  1
  H  H244  1  0.310347  1.122488  -0.377290  1
  H  H245  1  0.436452  1.072214  -0.392860  1
  H  H246  1  0.714924  1.203200  -0.272571  1
  H  H247  1  0.686107  1.216643  -0.365666  1
  H  H248  1  0.320239  1.249873  -0.272411  1
  H  H249  1  0.414744  1.292408  -0.331991  1
  H  H250  1  -0.240793  0.785843  0.063537  1
  H  H251  1  -0.323272  0.913116  -0.183312  1
  H  H252  1  1.240793  1.214157  -0.063537  1
  H  H253  1  1.323272  1.086884  0.183312  1
  H  H254  1  0.392969  1.216427  -0.467225  1
  H  H255  1  0.509928  1.159895  -0.486709  1
  H  H256  1  0.721263  1.068773  -0.300739  1
  H  H257  1  0.715792  1.090021  -0.393631  1
  H  H258  1  0.499359  1.266753  -0.171510  1
  H  H259  1  0.554036  1.328414  -0.231939  1
  H  H260  1  0.362101  1.071269  -0.544459  1
  H  H261  1  0.239952  1.120798  -0.517617  1
  H  H262  1  0.917742  1.161063  -0.370831  1
  H  H263  1  0.932981  1.071192  -0.363663  1
  H  H264  1  0.302163  1.337803  -0.162202  1
  H  H265  1  0.358500  1.399761  -0.221602  1
  H  H266  1  -0.571274  0.855701  -0.176843  1
  H  H267  1  1.571274  1.144299  0.176843  1
  H  H268  1  0.308916  1.221372  -0.605808  1
  H  H269  1  0.268483  1.146168  -0.653781  1
  H  H270  1  0.912426  1.169303  -0.229426  1
  H  H271  1  0.933664  1.079719  -0.223804  1
  H  H272  1  0.473099  1.368700  -0.068804  1
  H  H273  1  0.516496  1.435054  -0.127381  1
  H  H274  1  -0.695428  0.780217  -0.089065  1
  H  H275  1  1.695428  1.219783  0.089065  1
  H  H276  1  0.463169  1.195069  -0.702657  1
  H  H277  1  0.490517  1.113718  -0.663506  1
  H  H278  1  0.530953  1.188928  -0.615529  1
  H  H279  1  1.132440  1.142453  -0.199415  1
  H  H280  1  1.120087  1.182793  -0.284931  1
  H  H281  1  1.141337  1.093155  -0.279306  1
  H  H282  1  0.387923  1.484967  -0.025885  1
  H  H283  1  0.270293  1.429828  -0.051908  1
  H  H284  1  0.313718  1.496225  -0.110523  1
  S  S285  1  1.238390  0.412970  0.436160  1
  S  S286  1  0.761610  0.587030  0.563840  1
  S  S287  1  1.547070  0.441010  0.626650  1
  S  S288  1  0.452930  0.558990  0.373350  1
  S  S289  1  2.017290  0.261260  0.497820  1
  S  S290  1  -0.017290  0.738740  0.502180  1
  S  S291  1  0.261610  0.912970  0.063840  1
  S  S292  1  0.738390  1.087030  -0.063840  1
  S  S293  1  -0.047070  0.941010  -0.126650  1
  S  S294  1  1.047070  1.058990  0.126650  1
  S  S295  1  -0.517290  0.761260  0.002180  1
  S  S296  1  1.517290  1.238740  -0.002180  1
  Si  Si297  1  0.991700  0.327700  0.195400  1.0
  Si  Si298  1  1.008300  0.672300  0.804600  1
  Si  Si299  1  0.508300  0.827700  0.304600  1.0
  Si  Si300  1  0.491700  1.172300  -0.304600  1
