# generated using pymatgen
data_SiH18C17SBr
_symmetry_space_group_name_H-M   'P 1'
_cell_length_a   7.19260000
_cell_length_b   10.28590000
_cell_length_c   11.15650000
_cell_angle_alpha   95.36860000
_cell_angle_beta   90.09350000
_cell_angle_gamma   98.62500000
_symmetry_Int_Tables_number   1
_chemical_formula_structural   SiH18C17SBr
_chemical_formula_sum   'Si2 H36 C34 S2 Br2'
_cell_volume   812.36745303
_cell_formula_units_Z   2
loop_
 _symmetry_equiv_pos_site_id
 _symmetry_equiv_pos_as_xyz
  1  'x, y, z'
loop_
 _atom_site_type_symbol
 _atom_site_label
 _atom_site_symmetry_multiplicity
 _atom_site_fract_x
 _atom_site_fract_y
 _atom_site_fract_z
 _atom_site_occupancy
  Br  Br1  1  1.333970  -0.407280  0.908980  1
  Br  Br2  1  -0.333970  0.407280  1.091020  1
  C  C3  1  0.659800  0.197100  0.709410  1
  C  C4  1  0.861300  0.461200  0.657600  1
  C  C5  1  0.597300  0.297200  0.466700  1
  C  C6  1  0.969900  0.201500  0.532400  1
  C  C7  1  0.605200  0.139600  0.795000  1
  C  C8  1  0.713300  0.523300  0.732400  1
  C  C9  1  0.507700  0.163300  0.403900  1
  C  C10  1  1.119200  0.198200  0.629900  1
  C  C11  1  0.550200  0.069400  0.897520  1
  C  C12  1  0.658700  -0.026600  0.930510  1
  C  C13  1  0.391700  0.096700  0.965240  1
  C  C14  1  0.817400  -0.054400  0.863310  1
  C  C15  1  0.608300  -0.096700  1.034760  1
  C  C16  1  0.341300  0.026600  1.069490  1
  C  C17  1  0.283000  0.193000  0.933000  1
  C  C18  1  0.919600  -0.147100  0.896860  1
  C  C19  1  0.449800  -0.069400  1.102480  1
  C  C20  1  0.717000  -0.193000  1.067000  1
  C  C21  1  0.182600  0.054400  1.136690  1
  C  C22  1  0.129300  0.217100  0.999850  1
  C  C23  1  0.870700  -0.217100  1.000150  1
  C  C24  1  0.394800  -0.139600  1.205000  1
  C  C25  1  0.080400  0.147100  1.103140  1
  C  C26  1  -0.003200  0.308200  0.988400  1
  C  C27  1  1.003200  -0.308200  1.011600  1
  C  C28  1  1.134200  -0.308900  0.925500  1
  C  C29  1  0.340200  -0.197100  1.290590  1
  C  C30  1  -0.134200  0.308900  1.074500  1
  C  C31  1  0.138700  -0.461200  1.342400  1
  C  C32  1  0.402700  -0.297200  1.533300  1
  C  C33  1  0.030100  -0.201500  1.467600  1
  C  C34  1  0.286700  -0.523300  1.267600  1
  C  C35  1  0.492300  -0.163300  1.596100  1
  C  C36  1  -0.119200  -0.198200  1.370100  1
  H  H37  1  0.971800  0.458400  0.709800  1
  H  H38  1  0.903300  0.517800  0.592800  1
  H  H39  1  0.495800  0.343300  0.501600  1
  H  H40  1  0.659700  0.351200  0.405100  1
  H  H41  1  0.917700  0.109800  0.501900  1
  H  H42  1  1.030400  0.245700  0.464200  1
  H  H43  1  0.601100  0.522800  0.682300  1
  H  H44  1  0.764400  0.614400  0.761600  1
  H  H45  1  0.679500  0.472300  0.801200  1
  H  H46  1  0.606000  0.117600  0.366400  1
  H  H47  1  0.417800  0.177300  0.342000  1
  H  H48  1  0.442000  0.109500  0.463300  1
  H  H49  1  1.184800  0.287900  0.651800  1
  H  H50  1  1.209800  0.141500  0.599100  1
  H  H51  1  1.058300  0.163200  0.701100  1
  H  H52  1  0.852800  -0.008500  0.794900  1
  H  H53  1  0.316500  0.240700  0.865400  1
  H  H54  1  0.683500  -0.240700  1.134600  1
  H  H55  1  0.147200  0.008500  1.205100  1
  H  H56  1  0.001800  0.363700  0.924700  1
  H  H57  1  0.998200  -0.363700  1.075300  1
  H  H58  1  0.028200  -0.458400  1.290200  1
  H  H59  1  0.096700  -0.517800  1.407200  1
  H  H60  1  0.504200  -0.343300  1.498400  1
  H  H61  1  0.340300  -0.351200  1.594900  1
  H  H62  1  0.082300  -0.109800  1.498100  1
  H  H63  1  -0.030400  -0.245700  1.535800  1
  H  H64  1  0.398900  -0.522800  1.317700  1
  H  H65  1  0.235600  -0.614400  1.238400  1
  H  H66  1  0.320500  -0.472300  1.198800  1
  H  H67  1  0.394000  -0.117600  1.633600  1
  H  H68  1  0.582200  -0.177300  1.658000  1
  H  H69  1  0.558000  -0.109500  1.536700  1
  H  H70  1  -0.184800  -0.287900  1.348200  1
  H  H71  1  -0.209800  -0.141500  1.400900  1
  H  H72  1  -0.058300  -0.163200  1.298900  1
  S  S73  1  1.120270  -0.194300  0.820200  1
  S  S74  1  -0.120270  0.194300  1.179800  1
  Si  Si75  1  0.772830  0.290030  0.588460  1.0
  Si  Si76  1  0.227170  -0.290030  1.411540  1
