# generated using pymatgen
data_SiH22C19SF
_symmetry_space_group_name_H-M   'P 1'
_cell_length_a   7.28160000
_cell_length_b   11.33080000
_cell_length_c   11.85780000
_cell_angle_alpha   105.39200000
_cell_angle_beta   93.45500000
_cell_angle_gamma   108.26500000
_symmetry_Int_Tables_number   1
_chemical_formula_structural   SiH22C19SF
_chemical_formula_sum   'Si2 H44 C38 S2 F2'
_cell_volume   884.66622705
_cell_formula_units_Z   2
loop_
 _symmetry_equiv_pos_site_id
 _symmetry_equiv_pos_as_xyz
  1  'x, y, z'
loop_
 _atom_site_type_symbol
 _atom_site_label
 _atom_site_symmetry_multiplicity
 _atom_site_fract_x
 _atom_site_fract_y
 _atom_site_fract_z
 _atom_site_occupancy
  C  C1  1  0.662500  0.674600  0.248500  1
  C  C2  1  0.577200  0.783000  0.060500  1
  C  C3  1  0.840000  0.618600  0.024900  1
  C  C4  1  0.986600  0.896800  0.207900  1
  C  C5  1  0.610800  0.624100  0.322200  1
  C  C6  1  0.909000  1.008800  0.251500  1
  C  C7  1  1.125000  0.922700  0.112300  1
  C  C8  1  1.108100  0.888400  0.315600  1
  C  C9  1  0.553800  0.561200  0.411600  1
  C  C10  1  1.175000  0.771000  0.287200  1
  C  C11  1  1.298000  0.985000  0.368600  1
  C  C12  1  0.355400  0.486600  0.405800  1
  C  C13  1  0.698700  0.574700  0.503100  1
  C  C14  1  0.209300  0.472000  0.313100  1
  C  C15  1  0.301300  0.425300  0.496900  1
  C  C16  1  0.644600  0.513400  0.594200  1
  C  C17  1  0.898000  0.646400  0.508200  1
  C  C18  1  0.018300  0.401400  0.311000  1
  C  C19  1  0.446200  0.438800  0.588400  1
  C  C20  1  0.102000  0.353600  0.491800  1
  C  C21  1  0.790700  0.528000  0.686900  1
  C  C22  1  1.037600  0.658300  0.597400  1
  C  C23  1  -0.037600  0.341700  0.402600  1
  C  C24  1  0.389200  0.375900  0.677800  1
  C  C25  1  0.981700  0.598600  0.689000  1
  C  C26  1  1.242000  0.721000  0.614800  1
  C  C27  1  -0.242000  0.279000  0.385200  1
  C  C28  1  -0.331200  0.284100  0.282500  1
  C  C29  1  0.337500  0.325400  0.751500  1
  C  C30  1  1.331200  0.715900  0.717500  1
  C  C31  1  0.422800  0.217000  0.939500  1
  C  C32  1  0.160000  0.381400  0.975100  1
  C  C33  1  0.013400  0.103200  0.792100  1
  C  C34  1  0.091000  -0.008800  0.748500  1
  C  C35  1  -0.125000  0.077300  0.887700  1
  C  C36  1  -0.108100  0.111600  0.684400  1
  C  C37  1  -0.175000  0.229000  0.712800  1
  C  C38  1  -0.298000  0.015000  0.631400  1
  F  F39  1  -0.520200  0.240800  0.240600  1
  F  F40  1  1.520200  0.759200  0.759400  1
  H  H41  1  0.628000  0.822000  -0.000700  1
  H  H42  1  0.534600  0.844300  0.118500  1
  H  H43  1  0.465900  0.702600  0.023900  1
  H  H44  1  0.898600  0.655500  -0.035800  1
  H  H45  1  0.721600  0.543000  -0.012500  1
  H  H46  1  0.933700  0.591500  0.065100  1
  H  H47  1  0.830100  1.015300  0.185000  1
  H  H48  1  1.019500  1.090600  0.284900  1
  H  H49  1  0.828100  0.992500  0.312500  1
  H  H50  1  1.177600  0.851600  0.088100  1
  H  H51  1  1.233200  1.005300  0.146600  1
  H  H52  1  1.049700  0.927000  0.043100  1
  H  H53  1  1.024700  0.882200  0.379200  1
  H  H54  1  1.061900  0.691800  0.250100  1
  H  H55  1  1.235400  0.764700  0.360400  1
  H  H56  1  1.270700  0.781000  0.232600  1
  H  H57  1  1.285800  1.071500  0.394100  1
  H  H58  1  1.388000  0.983600  0.310400  1
  H  H59  1  1.349300  0.965700  0.437300  1
  H  H60  1  0.244600  0.511500  0.252500  1
  H  H61  1  0.936000  0.687000  0.448700  1
  H  H62  1  0.064000  0.313000  0.551300  1
  H  H63  1  0.755400  0.488500  0.747500  1
  H  H64  1  1.309800  0.761400  0.561600  1
  H  H65  1  -0.309800  0.238600  0.438400  1
  H  H66  1  0.372000  0.178000  1.000700  1
  H  H67  1  0.465400  0.155700  0.881500  1
  H  H68  1  0.534100  0.297400  0.976100  1
  H  H69  1  0.101400  0.344500  1.035800  1
  H  H70  1  0.278400  0.457000  1.012500  1
  H  H71  1  0.066300  0.408500  0.934900  1
  H  H72  1  0.169900  -0.015300  0.815000  1
  H  H73  1  -0.019500  -0.090600  0.715100  1
  H  H74  1  0.171900  0.007500  0.687500  1
  H  H75  1  -0.177600  0.148400  0.911900  1
  H  H76  1  -0.233200  -0.005300  0.853400  1
  H  H77  1  -0.049700  0.073000  0.956900  1
  H  H78  1  -0.024700  0.117800  0.620800  1
  H  H79  1  -0.061900  0.308200  0.749900  1
  H  H80  1  -0.235400  0.235300  0.639600  1
  H  H81  1  -0.270700  0.219000  0.767400  1
  H  H82  1  -0.285800  -0.071500  0.605900  1
  H  H83  1  -0.388000  0.016400  0.689600  1
  H  H84  1  -0.349300  0.034300  0.562700  1
  S  S85  1  -0.175100  0.371800  0.203700  1
  S  S86  1  1.175100  0.628200  0.796300  1
  Si  Si87  1  0.772800  0.745000  0.135900  1.0
  Si  Si88  1  0.227200  0.255000  0.864100  1
