# generated using pymatgen
data_SiH24C24F7
_symmetry_space_group_name_H-M   'P 1'
_cell_length_a   14.29740000
_cell_length_b   10.55210000
_cell_length_c   15.09200000
_cell_angle_alpha   90.00000000
_cell_angle_beta   92.17590000
_cell_angle_gamma   90.00000000
_symmetry_Int_Tables_number   1
_chemical_formula_structural   SiH24C24F7
_chemical_formula_sum   'Si4 H96 C96 F28'
_cell_volume   2275.25203917
_cell_formula_units_Z   4
loop_
 _symmetry_equiv_pos_site_id
 _symmetry_equiv_pos_as_xyz
  1  'x, y, z'
loop_
 _atom_site_type_symbol
 _atom_site_label
 _atom_site_symmetry_multiplicity
 _atom_site_fract_x
 _atom_site_fract_y
 _atom_site_fract_z
 _atom_site_occupancy
  C  C1  1  0.598260  0.818490  0.621660  1
  C  C2  1  0.522920  1.043780  0.714910  1
  C  C3  1  0.713550  1.061270  0.622020  1
  C  C4  1  0.698960  0.896520  0.789140  1
  C  C5  1  0.570950  0.723570  0.584260  1
  C  C6  1  0.453920  0.955360  0.759780  1
  C  C7  1  0.477040  1.103130  0.631290  1
  C  C8  1  0.733500  1.187370  0.670310  1
  C  C9  1  0.805410  0.994230  0.601200  1
  C  C10  1  0.757010  0.778680  0.768900  1
  C  C11  1  0.535920  0.611640  0.541280  1
  C  C12  1  0.822910  0.740950  0.844210  1
  C  C13  1  0.437650  0.595850  0.529020  1
  C  C14  1  0.598670  0.516980  0.513670  1
  C  C15  1  0.884330  0.624060  0.827040  1
  C  C16  1  0.374370  0.687510  0.558320  1
  C  C17  1  0.401330  0.483020  0.486330  1
  C  C18  1  0.562350  0.404150  0.470980  1
  C  C19  1  0.696320  0.529030  0.528300  1
  C  C20  1  0.960760  0.638410  0.759220  1
  C  C21  1  0.278280  0.673360  0.545400  1
  C  C22  1  0.464080  0.388360  0.458720  1
  C  C23  1  0.303680  0.470970  0.471700  1
  C  C24  1  0.625630  0.312490  0.441680  1
  C  C25  1  0.757800  0.436790  0.500750  1
  C  C26  1  0.213700  0.765580  0.575940  1
  C  C27  1  0.242200  0.563210  0.499250  1
  C  C28  1  0.429050  0.276430  0.415740  1
  C  C29  1  0.721720  0.326640  0.454600  1
  C  C30  1  0.857000  0.446300  0.517100  1
  C  C31  1  0.120100  0.751830  0.559750  1
  C  C32  1  0.143000  0.553700  0.482900  1
  C  C33  1  0.401740  0.181510  0.378340  1
  C  C34  1  0.786300  0.234420  0.424060  1
  C  C35  1  0.915460  0.355330  0.488490  1
  C  C36  1  0.084540  0.644670  0.511510  1
  C  C37  1  0.879900  0.248170  0.440250  1
  C  C38  1  0.477080  -0.043780  0.285090  1
  C  C39  1  0.286450  -0.061270  0.377980  1
  C  C40  1  0.301040  0.103480  0.210860  1
  C  C41  1  0.546080  0.044640  0.240220  1
  C  C42  1  0.522960  -0.103130  0.368710  1
  C  C43  1  0.266500  -0.187370  0.329690  1
  C  C44  1  0.194590  0.005770  0.398800  1
  C  C45  1  0.242990  0.221320  0.231100  1
  C  C46  1  0.177090  0.259050  0.155790  1
  C  C47  1  0.115670  0.375940  0.172960  1
  C  C48  1  0.039240  0.361590  0.240780  1
  C  C49  1  0.401740  0.318490  0.878340  1
  C  C50  1  0.477080  0.543780  0.785090  1
  C  C51  1  0.286450  0.561270  0.877980  1
  C  C52  1  0.301040  0.396520  0.710860  1
  C  C53  1  0.429050  0.223570  0.915740  1
  C  C54  1  0.546080  0.455360  0.740220  1
  C  C55  1  0.522960  0.603130  0.868710  1
  C  C56  1  0.266500  0.687370  0.829690  1
  C  C57  1  0.194590  0.494230  0.898800  1
  C  C58  1  0.242990  0.278680  0.731100  1
  C  C59  1  0.464080  0.111640  0.958720  1
  C  C60  1  0.177090  0.240950  0.655790  1
  C  C61  1  0.562350  0.095850  0.970980  1
  C  C62  1  0.401330  0.016980  0.986330  1
  C  C63  1  0.115670  0.124060  0.672960  1
  C  C64  1  0.625630  0.187510  0.941680  1
  C  C65  1  0.598670  -0.016980  1.013670  1
  C  C66  1  0.437650  -0.095850  1.029020  1
  C  C67  1  0.303680  0.029030  0.971700  1
  C  C68  1  0.039240  0.138410  0.740780  1
  C  C69  1  0.721720  0.173360  0.954600  1
  C  C70  1  0.535920  -0.111640  1.041280  1
  C  C71  1  0.696320  -0.029030  1.028300  1
  C  C72  1  0.374370  -0.187510  1.058320  1
  C  C73  1  0.242200  -0.063210  0.999250  1
  C  C74  1  0.786300  0.265580  0.924060  1
  C  C75  1  0.757800  0.063210  1.000750  1
  C  C76  1  0.570950  -0.223570  1.084260  1
  C  C77  1  0.278280  -0.173360  1.045400  1
  C  C78  1  0.143000  -0.053700  0.982900  1
  C  C79  1  0.879900  0.251830  0.940250  1
  C  C80  1  0.857000  0.053700  1.017100  1
  C  C81  1  0.598260  -0.318490  1.121660  1
  C  C82  1  0.213700  -0.265580  1.075940  1
  C  C83  1  0.084540  -0.144670  1.011510  1
  C  C84  1  0.915460  0.144670  0.988490  1
  C  C85  1  0.120100  -0.251830  1.059750  1
  C  C86  1  0.522920  -0.543780  1.214910  1
  C  C87  1  0.713550  -0.561270  1.122020  1
  C  C88  1  0.698960  -0.396520  1.289140  1
  C  C89  1  0.453920  -0.455360  1.259780  1
  C  C90  1  0.477040  -0.603130  1.131290  1
  C  C91  1  0.733500  -0.687370  1.170310  1
  C  C92  1  0.805410  -0.494230  1.101200  1
  C  C93  1  0.757010  -0.278680  1.268900  1
  C  C94  1  0.822910  -0.240950  1.344210  1
  C  C95  1  0.884330  -0.124060  1.327040  1
  C  C96  1  0.960760  -0.138410  1.259220  1
  F  F97  1  0.774700  0.713290  0.917500  1
  F  F98  1  0.882100  0.836800  0.867340  1
  F  F99  1  0.828760  0.528300  0.798000  1
  F  F100  1  0.928180  0.588290  0.903930  1
  F  F101  1  0.926100  0.677150  0.681070  1
  F  F102  1  1.025450  0.719610  0.786540  1
  F  F103  1  1.002280  0.528180  0.747050  1
  F  F104  1  0.225300  0.286710  0.082500  1
  F  F105  1  0.117900  0.163200  0.132660  1
  F  F106  1  0.171240  0.471700  0.202000  1
  F  F107  1  0.071820  0.411710  0.096070  1
  F  F108  1  0.073900  0.322850  0.318930  1
  F  F109  1  -0.025450  0.280390  0.213460  1
  F  F110  1  -0.002280  0.471820  0.252950  1
  F  F111  1  0.225300  0.213290  0.582500  1
  F  F112  1  0.117900  0.336800  0.632660  1
  F  F113  1  0.171240  0.028300  0.702000  1
  F  F114  1  0.071820  0.088290  0.596070  1
  F  F115  1  0.073900  0.177150  0.818930  1
  F  F116  1  -0.025450  0.219610  0.713460  1
  F  F117  1  -0.002280  0.028180  0.752950  1
  F  F118  1  0.774700  -0.213290  1.417500  1
  F  F119  1  0.882100  -0.336800  1.367340  1
  F  F120  1  0.828760  -0.028300  1.298000  1
  F  F121  1  0.928180  -0.088290  1.403930  1
  F  F122  1  0.926100  -0.177150  1.181070  1
  F  F123  1  1.025450  -0.219610  1.286540  1
  F  F124  1  1.002280  -0.028180  1.247050  1
  H  H125  1  0.539661  1.113763  0.757285  1
  H  H126  1  0.680230  1.081425  0.564277  1
  H  H127  1  0.740934  0.963541  0.813622  1
  H  H128  1  0.653524  0.875198  0.834737  1
  H  H129  1  0.397952  1.003200  0.774801  1
  H  H130  1  0.483605  0.920217  0.813979  1
  H  H131  1  0.436136  0.886186  0.719219  1
  H  H132  1  0.418630  1.145065  0.646500  1
  H  H133  1  0.463480  1.036716  0.587266  1
  H  H134  1  0.519684  1.165521  0.606685  1
  H  H135  1  0.776508  1.238375  0.635988  1
  H  H136  1  0.761951  1.170255  0.729197  1
  H  H137  1  0.674740  1.233790  0.676515  1
  H  H138  1  0.841607  1.047810  0.562015  1
  H  H139  1  0.791432  0.913235  0.571811  1
  H  H140  1  0.841834  0.978850  0.656465  1
  H  H141  1  0.714090  0.707188  0.754960  1
  H  H142  1  0.793588  0.795297  0.715728  1
  H  H143  1  0.398039  0.761061  0.587741  1
  H  H144  1  0.720540  0.602218  0.557776  1
  H  H145  1  0.279460  0.397782  0.442224  1
  H  H146  1  0.601961  0.238939  0.412259  1
  H  H147  1  0.236522  0.837399  0.607974  1
  H  H148  1  0.882062  0.517413  0.548443  1
  H  H149  1  0.078105  0.813843  0.580640  1
  H  H150  1  0.117938  0.482587  0.451557  1
  H  H151  1  0.763478  0.162601  0.392026  1
  H  H152  1  0.980906  0.362901  0.500651  1
  H  H153  1  0.019094  0.637099  0.499349  1
  H  H154  1  0.921895  0.186157  0.419360  1
  H  H155  1  0.460339  -0.113763  0.242715  1
  H  H156  1  0.319770  -0.081425  0.435723  1
  H  H157  1  0.259066  0.036459  0.186378  1
  H  H158  1  0.346476  0.124802  0.165263  1
  H  H159  1  0.602048  -0.003200  0.225199  1
  H  H160  1  0.516395  0.079783  0.186021  1
  H  H161  1  0.563864  0.113814  0.280781  1
  H  H162  1  0.581370  -0.145065  0.353500  1
  H  H163  1  0.536520  -0.036716  0.412734  1
  H  H164  1  0.480316  -0.165521  0.393315  1
  H  H165  1  0.223492  -0.238375  0.364012  1
  H  H166  1  0.238049  -0.170255  0.270803  1
  H  H167  1  0.325260  -0.233790  0.323485  1
  H  H168  1  0.158393  -0.047810  0.437985  1
  H  H169  1  0.208568  0.086765  0.428189  1
  H  H170  1  0.158166  0.021150  0.343535  1
  H  H171  1  0.285910  0.292812  0.245040  1
  H  H172  1  0.206412  0.204703  0.284272  1
  H  H173  1  0.460339  0.613763  0.742715  1
  H  H174  1  0.319770  0.581425  0.935723  1
  H  H175  1  0.259066  0.463541  0.686378  1
  H  H176  1  0.346476  0.375198  0.665263  1
  H  H177  1  0.602048  0.503200  0.725199  1
  H  H178  1  0.516395  0.420217  0.686021  1
  H  H179  1  0.563864  0.386186  0.780781  1
  H  H180  1  0.581370  0.645065  0.853500  1
  H  H181  1  0.536520  0.536716  0.912734  1
  H  H182  1  0.480316  0.665521  0.893315  1
  H  H183  1  0.223492  0.738375  0.864012  1
  H  H184  1  0.238049  0.670255  0.770803  1
  H  H185  1  0.325260  0.733790  0.823485  1
  H  H186  1  0.158393  0.547810  0.937985  1
  H  H187  1  0.208568  0.413235  0.928189  1
  H  H188  1  0.158166  0.478850  0.843535  1
  H  H189  1  0.285910  0.207188  0.745040  1
  H  H190  1  0.206412  0.295297  0.784272  1
  H  H191  1  0.601961  0.261061  0.912259  1
  H  H192  1  0.279460  0.102218  0.942224  1
  H  H193  1  0.720540  -0.102218  1.057776  1
  H  H194  1  0.398039  -0.261061  1.087741  1
  H  H195  1  0.763478  0.337399  0.892026  1
  H  H196  1  0.117938  0.017413  0.951557  1
  H  H197  1  0.921895  0.313843  0.919360  1
  H  H198  1  0.882062  -0.017413  1.048443  1
  H  H199  1  0.236522  -0.337399  1.107974  1
  H  H200  1  0.019094  -0.137099  0.999349  1
  H  H201  1  0.980906  0.137099  1.000651  1
  H  H202  1  0.078105  -0.313843  1.080640  1
  H  H203  1  0.539661  -0.613763  1.257285  1
  H  H204  1  0.680230  -0.581425  1.064277  1
  H  H205  1  0.740934  -0.463541  1.313622  1
  H  H206  1  0.653524  -0.375198  1.334737  1
  H  H207  1  0.397952  -0.503200  1.274801  1
  H  H208  1  0.483605  -0.420217  1.313979  1
  H  H209  1  0.436136  -0.386186  1.219219  1
  H  H210  1  0.418630  -0.645065  1.146500  1
  H  H211  1  0.463480  -0.536716  1.087266  1
  H  H212  1  0.519684  -0.665521  1.106685  1
  H  H213  1  0.776508  -0.738375  1.135988  1
  H  H214  1  0.761951  -0.670255  1.229197  1
  H  H215  1  0.674740  -0.733790  1.176515  1
  H  H216  1  0.841607  -0.547810  1.062015  1
  H  H217  1  0.791432  -0.413235  1.071811  1
  H  H218  1  0.841834  -0.478850  1.156465  1
  H  H219  1  0.714090  -0.207188  1.254960  1
  H  H220  1  0.793588  -0.295297  1.215728  1
  Si  Si221  1  0.633880  0.958770  0.687490  1.0
  Si  Si222  1  0.366120  0.041230  0.312510  1
  Si  Si223  1  0.366120  0.458770  0.812510  1.0
  Si  Si224  1  0.633880  -0.458770  1.187490  1
