# generated using pymatgen
data_SiH23C24SO2
_symmetry_space_group_name_H-M   'P 1'
_cell_length_a   6.61640000
_cell_length_b   11.18670000
_cell_length_c   14.85380000
_cell_angle_alpha   98.10200000
_cell_angle_beta   96.69500000
_cell_angle_gamma   98.41500000
_symmetry_Int_Tables_number   1
_chemical_formula_structural   SiH23C24SO2
_chemical_formula_sum   'Si2 H46 C48 S2 O4'
_cell_volume   1066.10309516
_cell_formula_units_Z   2
loop_
 _symmetry_equiv_pos_site_id
 _symmetry_equiv_pos_as_xyz
  1  'x, y, z'
loop_
 _atom_site_type_symbol
 _atom_site_label
 _atom_site_symmetry_multiplicity
 _atom_site_fract_x
 _atom_site_fract_y
 _atom_site_fract_z
 _atom_site_occupancy
  C  C1  1  0.494100  0.827900  0.653730  1
  C  C2  1  0.740400  1.001800  0.819700  1
  C  C3  1  0.273400  0.913900  0.819800  1
  C  C4  1  0.409200  1.082200  0.684400  1
  C  C5  1  0.496300  0.732300  0.606130  1
  C  C6  1  0.808600  0.895400  0.863300  1
  C  C7  1  0.249200  1.015300  0.895500  1
  C  C8  1  0.563300  1.120900  0.622200  1
  C  C9  1  0.497900  0.616160  0.551940  1
  C  C10  1  0.332300  0.564340  0.482230  1
  C  C11  1  0.666000  0.553690  0.570520  1
  C  C12  1  0.166400  0.627800  0.462540  1
  C  C13  1  0.334000  0.446310  0.429480  1
  C  C14  1  0.667700  0.435660  0.517770  1
  C  C15  1  0.833400  0.605200  0.639900  1
  C  C16  1  0.009100  0.575600  0.393730  1
  C  C17  1  0.502100  0.383840  0.448060  1
  C  C18  1  0.166600  0.394800  0.360100  1
  C  C19  1  0.833600  0.372200  0.537460  1
  C  C20  1  0.992800  0.542700  0.657700  1
  C  C21  1  0.007200  0.457300  0.342300  1
  C  C22  1  0.503700  0.267700  0.393870  1
  C  C23  1  0.990900  0.424400  0.606270  1
  C  C24  1  1.174800  0.571000  0.725600  1
  C  C25  1  -0.174800  0.429000  0.274400  1
  C  C26  1  -0.292000  0.511600  0.272600  1
  C  C27  1  0.505900  0.172100  0.346270  1
  C  C28  1  1.292000  0.488400  0.727400  1
  C  C29  1  -0.475000  0.507400  0.204040  1
  C  C30  1  1.475000  0.492600  0.795960  1
  C  C31  1  0.259600  -0.001800  0.180300  1
  C  C32  1  0.726600  0.086100  0.180200  1
  C  C33  1  0.590800  -0.082200  0.315600  1
  C  C34  1  -0.695900  0.631900  0.141590  1
  C  C35  1  0.191400  0.104600  0.136700  1
  C  C36  1  0.750800  -0.015300  0.104500  1
  C  C37  1  0.436700  -0.120900  0.377800  1
  C  C38  1  1.695900  0.368100  0.858410  1
  C  C39  1  -0.878000  0.654100  0.171170  1
  C  C40  1  -0.661900  0.632500  0.051980  1
  C  C41  1  1.878000  0.345900  0.828830  1
  C  C42  1  1.661900  0.367500  0.948020  1
  C  C43  1  -1.033600  0.676100  0.107910  1
  C  C44  1  -0.819900  0.654300  -0.010180  1
  C  C45  1  2.033600  0.323900  0.892090  1
  C  C46  1  1.819900  0.345700  1.010180  1
  C  C47  1  -1.004900  0.676100  0.017460  1
  C  C48  1  2.004900  0.323900  0.982540  1
  H  H49  1  0.843800  1.030400  0.780900  1
  H  H50  1  0.736400  1.070600  0.868900  1
  H  H51  1  0.139700  0.887400  0.779400  1
  H  H52  1  0.306900  0.842900  0.848100  1
  H  H53  1  0.272100  1.053600  0.647100  1
  H  H54  1  0.397900  1.154200  0.729500  1
  H  H55  1  0.704300  0.864500  0.899800  1
  H  H56  1  0.940800  0.924000  0.903000  1
  H  H57  1  0.824200  0.829600  0.814800  1
  H  H58  1  0.379800  1.041100  0.936800  1
  H  H59  1  0.140700  0.985000  0.930200  1
  H  H60  1  0.211500  1.085200  0.868200  1
  H  H61  1  0.697200  1.154800  0.659200  1
  H  H62  1  0.514800  1.183200  0.588900  1
  H  H63  1  0.577700  1.049700  0.578200  1
  H  H64  1  0.164300  0.705900  0.496800  1
  H  H65  1  0.835300  0.683700  0.674400  1
  H  H66  1  0.164700  0.316300  0.325600  1
  H  H67  1  0.835700  0.294100  0.503200  1
  H  H68  1  1.206600  0.646400  0.766800  1
  H  H69  1  -0.206600  0.353600  0.233200  1
  H  H70  1  0.156200  -0.030400  0.219100  1
  H  H71  1  0.263600  -0.070600  0.131100  1
  H  H72  1  0.860300  0.112600  0.220600  1
  H  H73  1  0.693100  0.157100  0.151900  1
  H  H74  1  0.727900  -0.053600  0.352900  1
  H  H75  1  0.602100  -0.154200  0.270500  1
  H  H76  1  0.295700  0.135500  0.100200  1
  H  H77  1  0.059200  0.076000  0.097000  1
  H  H78  1  0.175800  0.170400  0.185200  1
  H  H79  1  0.620200  -0.041100  0.063200  1
  H  H80  1  0.859300  0.015000  0.069800  1
  H  H81  1  0.788500  -0.085200  0.131800  1
  H  H82  1  0.302800  -0.154800  0.340800  1
  H  H83  1  0.485200  -0.183200  0.411100  1
  H  H84  1  0.422300  -0.049700  0.421800  1
  H  H85  1  -0.896700  0.654400  0.233600  1
  H  H86  1  -0.533700  0.618500  0.033300  1
  H  H87  1  1.896700  0.345600  0.766400  1
  H  H88  1  1.533700  0.381500  0.966700  1
  H  H89  1  -1.160900  0.691200  0.127000  1
  H  H90  1  -0.800700  0.654100  -0.072600  1
  H  H91  1  2.160900  0.308800  0.873000  1
  H  H92  1  1.800700  0.345900  1.072600  1
  H  H93  1  -1.112200  0.691200  -0.025700  1
  H  H94  1  2.112200  0.308800  1.025700  1
  O  O95  1  -0.553800  0.417860  0.150130  1
  O  O96  1  -0.535200  0.617950  0.208820  1
  O  O97  1  1.553800  0.582140  0.849870  1
  O  O98  1  1.535200  0.382050  0.791180  1
  S  S99  1  -0.201230  0.642630  0.355690  1
  S  S100  1  1.201230  0.357370  0.644310  1
  Si  Si101  1  0.479100  0.958950  0.747130  1.0
  Si  Si102  1  0.520900  0.041050  0.252870  1
