# generated using pymatgen
data_SiH23(C10N)2
_symmetry_space_group_name_H-M   'P 1'
_cell_length_a   8.18920000
_cell_length_b   8.46960000
_cell_length_c   14.20250000
_cell_angle_alpha   107.19300000
_cell_angle_beta   99.78400000
_cell_angle_gamma   91.84500000
_symmetry_Int_Tables_number   1
_chemical_formula_structural   SiH23(C10N)2
_chemical_formula_sum   'Si2 H46 C40 N4'
_cell_volume   923.80739604
_cell_formula_units_Z   2
loop_
 _symmetry_equiv_pos_site_id
 _symmetry_equiv_pos_as_xyz
  1  'x, y, z'
loop_
 _atom_site_type_symbol
 _atom_site_label
 _atom_site_symmetry_multiplicity
 _atom_site_fract_x
 _atom_site_fract_y
 _atom_site_fract_z
 _atom_site_occupancy
  C  C1  1  0.218800  0.584200  0.714800  1
  C  C2  1  -0.128200  0.602400  0.761700  1
  C  C3  1  0.256800  0.783400  0.930500  1
  C  C4  1  0.127500  0.418400  0.858730  1
  C  C5  1  0.293900  0.561400  0.647500  1
  C  C6  1  -0.152900  0.726300  0.702700  1
  C  C7  1  -0.239200  0.619700  0.838800  1
  C  C8  1  0.269700  0.948600  0.906900  1
  C  C9  1  0.204500  0.810000  1.032600  1
  C  C10  1  0.045200  0.265100  0.774700  1
  C  C11  1  0.309100  0.392500  0.895700  1
  C  C12  1  0.394200  0.529800  0.571740  1
  C  C13  1  0.496300  0.397500  0.562020  1
  C  C14  1  0.395300  0.633000  0.509620  1
  C  C15  1  0.496100  0.291500  0.622790  1
  C  C16  1  0.604700  0.367000  0.490380  1
  C  C17  1  0.503700  0.602500  0.437980  1
  C  C18  1  0.292000  0.765800  0.515760  1
  C  C19  1  0.594800  0.165200  0.614880  1
  C  C20  1  0.605800  0.470200  0.428260  1
  C  C21  1  0.708000  0.234200  0.484240  1
  C  C22  1  0.503900  0.708500  0.377210  1
  C  C23  1  0.294700  0.863700  0.456200  1
  C  C24  1  0.705300  0.136300  0.543800  1
  C  C25  1  0.586900  0.061000  0.678800  1
  C  C26  1  0.706100  0.438600  0.352500  1
  C  C27  1  0.405200  0.834800  0.385120  1
  C  C28  1  0.194100  1.004200  0.466200  1
  C  C29  1  0.805900  -0.004200  0.533800  1
  C  C30  1  0.781200  0.415800  0.285200  1
  C  C31  1  0.413100  0.939000  0.321200  1
  C  C32  1  1.128200  0.397600  0.238300  1
  C  C33  1  0.743200  0.216600  0.069500  1
  C  C34  1  0.872500  0.581600  0.141270  1
  C  C35  1  1.152900  0.273700  0.297300  1
  C  C36  1  1.239200  0.380300  0.161200  1
  C  C37  1  0.730300  0.051400  0.093100  1
  C  C38  1  0.795500  0.190000  -0.032600  1
  C  C39  1  0.954800  0.734900  0.225300  1
  C  C40  1  0.690900  0.607500  0.104300  1
  H  H41  1  -0.158000  0.489400  0.712000  1
  H  H42  1  0.370600  0.743700  0.936100  1
  H  H43  1  0.067800  0.431000  0.916000  1
  H  H44  1  -0.268900  0.713500  0.667900  1
  H  H45  1  -0.079400  0.705900  0.653400  1
  H  H46  1  -0.126200  0.839300  0.748900  1
  H  H47  1  -0.206700  0.724900  0.892500  1
  H  H48  1  -0.227400  0.527400  0.867200  1
  H  H49  1  -0.355300  0.617900  0.806600  1
  H  H50  1  0.160900  0.993600  0.903500  1
  H  H51  1  0.305400  0.930000  0.842400  1
  H  H52  1  0.351100  1.027600  0.959900  1
  H  H53  1  0.283800  0.892600  1.084700  1
  H  H54  1  0.203200  0.704900  1.048400  1
  H  H55  1  0.093100  0.849400  1.029900  1
  H  H56  1  0.093400  0.255500  0.714800  1
  H  H57  1  -0.074500  0.275100  0.759100  1
  H  H58  1  0.063800  0.166200  0.796000  1
  H  H59  1  0.313500  0.287200  0.911200  1
  H  H60  1  0.355900  0.483800  0.956200  1
  H  H61  1  0.373700  0.389800  0.843200  1
  H  H62  1  0.424600  0.309800  0.670400  1
  H  H63  1  0.219400  0.786300  0.562800  1
  H  H64  1  0.780600  0.213700  0.437200  1
  H  H65  1  0.575400  0.690200  0.329600  1
  H  H66  1  1.158000  0.510600  0.288000  1
  H  H67  1  0.629400  0.256300  0.063900  1
  H  H68  1  0.932200  0.569000  0.084000  1
  H  H69  1  1.268900  0.286500  0.332100  1
  H  H70  1  1.079400  0.294100  0.346600  1
  H  H71  1  1.126200  0.160700  0.251100  1
  H  H72  1  1.206700  0.275100  0.107500  1
  H  H73  1  1.227400  0.472600  0.132800  1
  H  H74  1  1.355300  0.382100  0.193400  1
  H  H75  1  0.839100  0.006400  0.096500  1
  H  H76  1  0.694600  0.070000  0.157600  1
  H  H77  1  0.648900  -0.027600  0.040100  1
  H  H78  1  0.716200  0.107400  -0.084700  1
  H  H79  1  0.796800  0.295100  -0.048400  1
  H  H80  1  0.906900  0.150600  -0.029900  1
  H  H81  1  0.906600  0.744500  0.285200  1
  H  H82  1  1.074500  0.724900  0.240900  1
  H  H83  1  0.936200  0.833800  0.204000  1
  H  H84  1  0.686500  0.712800  0.088800  1
  H  H85  1  0.644100  0.516200  0.043800  1
  H  H86  1  0.626300  0.610200  0.156800  1
  N  N87  1  0.576900  -0.020200  0.728100  1
  N  N88  1  0.115500  1.117500  0.473900  1
  N  N89  1  0.884500  -0.117500  0.526100  1
  N  N90  1  0.423100  1.020200  0.271900  1
  Si  Si91  1  0.110560  0.612630  0.822080  1.0
  Si  Si92  1  0.889440  0.387370  0.177920  1
