# generated using pymatgen
data_GeH27C22
_symmetry_space_group_name_H-M   'P 1'
_cell_length_a   14.42400000
_cell_length_b   14.73880000
_cell_length_c   18.08700000
_cell_angle_alpha   90.00000000
_cell_angle_beta   90.00000000
_cell_angle_gamma   90.00000000
_symmetry_Int_Tables_number   1
_chemical_formula_structural   GeH27C22
_chemical_formula_sum   'Ge8 H216 C176'
_cell_volume   3845.15966485
_cell_formula_units_Z   8
loop_
 _symmetry_equiv_pos_site_id
 _symmetry_equiv_pos_as_xyz
  1  'x, y, z'
loop_
 _atom_site_type_symbol
 _atom_site_label
 _atom_site_symmetry_multiplicity
 _atom_site_fract_x
 _atom_site_fract_y
 _atom_site_fract_z
 _atom_site_occupancy
  C  C1  1  0.464780  0.410610  0.710300  1
  C  C2  1  0.317540  0.393570  0.835410  1
  C  C3  1  0.539440  0.386150  0.876190  1
  C  C4  1  0.443050  0.223750  0.779370  1
  C  C5  1  0.472850  0.434540  0.646960  1
  C  C6  1  0.245140  0.363310  0.779130  1
  C  C7  1  0.312130  0.495670  0.848680  1
  C  C8  1  0.503220  0.373680  0.955600  1
  C  C9  1  0.579320  0.480630  0.864940  1
  C  C10  1  0.537130  0.193720  0.749840  1
  C  C11  1  0.410540  0.164600  0.842310  1
  C  C12  1  0.484580  0.465560  0.572460  1
  C  C13  1  0.552540  0.424590  0.526610  1
  C  C14  1  0.430320  0.538830  0.546230  1
  C  C15  1  0.602250  0.347560  0.549290  1
  C  C16  1  0.569680  0.461170  0.453770  1
  C  C17  1  0.447460  0.575410  0.473390  1
  C  C18  1  0.359420  0.577840  0.589200  1
  C  C19  1  0.668780  0.307170  0.505100  1
  C  C20  1  0.515420  0.534440  0.427540  1
  C  C21  1  0.640580  0.422160  0.410800  1
  C  C22  1  0.397750  0.652440  0.450710  1
  C  C23  1  0.309700  0.652740  0.565490  1
  C  C24  1  0.716750  0.226240  0.526310  1
  C  C25  1  0.690300  0.347260  0.434510  1
  C  C26  1  0.527150  0.565460  0.353040  1
  C  C27  1  0.331220  0.692830  0.494900  1
  C  C28  1  0.237960  0.693250  0.609180  1
  C  C29  1  0.782940  0.189540  0.482520  1
  C  C30  1  0.762040  0.306750  0.390820  1
  C  C31  1  0.535220  0.589390  0.289700  1
  C  C32  1  0.283250  0.773760  0.473690  1
  C  C33  1  0.193580  0.768950  0.586240  1
  C  C34  1  0.806420  0.231050  0.413760  1
  C  C35  1  0.217060  0.810460  0.517480  1
  C  C36  1  0.682460  0.606430  0.164590  1
  C  C37  1  0.460560  0.613850  0.123810  1
  C  C38  1  0.556950  0.776250  0.220630  1
  C  C39  1  0.754860  0.636690  0.220870  1
  C  C40  1  0.687870  0.504330  0.151320  1
  C  C41  1  0.496780  0.626320  0.044400  1
  C  C42  1  0.420680  0.519370  0.135060  1
  C  C43  1  0.462870  0.806280  0.250160  1
  C  C44  1  0.589460  0.835400  0.157690  1
  C  C45  1  1.035220  0.589390  1.210300  1
  C  C46  1  1.182460  0.606430  1.335410  1
  C  C47  1  0.960560  0.613850  1.376190  1
  C  C48  1  1.056950  0.776250  1.279370  1
  C  C49  1  1.027150  0.565460  1.146960  1
  C  C50  1  1.254860  0.636690  1.279130  1
  C  C51  1  1.187870  0.504330  1.348680  1
  C  C52  1  0.996780  0.626320  1.455600  1
  C  C53  1  0.920680  0.519370  1.364940  1
  C  C54  1  0.962870  0.806280  1.249840  1
  C  C55  1  1.089460  0.835400  1.342310  1
  C  C56  1  1.015420  0.534440  1.072460  1
  C  C57  1  0.947460  0.575410  1.026610  1
  C  C58  1  1.069680  0.461170  1.046230  1
  C  C59  1  0.897750  0.652440  1.049290  1
  C  C60  1  0.930320  0.538830  0.953770  1
  C  C61  1  1.052540  0.424590  0.973390  1
  C  C62  1  1.140580  0.422160  1.089200  1
  C  C63  1  0.831220  0.692830  1.005100  1
  C  C64  1  0.984580  0.465560  0.927540  1
  C  C65  1  0.859420  0.577840  0.910800  1
  C  C66  1  1.102250  0.347560  0.950710  1
  C  C67  1  1.190300  0.347260  1.065490  1
  C  C68  1  0.783250  0.773760  1.026310  1
  C  C69  1  0.809700  0.652740  0.934510  1
  C  C70  1  0.972850  0.434540  0.853040  1
  C  C71  1  1.168780  0.307170  0.994900  1
  C  C72  1  1.262040  0.306750  1.109180  1
  C  C73  1  0.717060  0.810460  0.982520  1
  C  C74  1  0.737960  0.693250  0.890820  1
  C  C75  1  0.964780  0.410610  0.789700  1
  C  C76  1  1.216750  0.226240  0.973690  1
  C  C77  1  1.306420  0.231050  1.086240  1
  C  C78  1  0.693580  0.768950  0.913760  1
  C  C79  1  1.282940  0.189540  1.017480  1
  C  C80  1  0.817540  0.393570  0.664590  1
  C  C81  1  1.039440  0.386150  0.623810  1
  C  C82  1  0.943050  0.223750  0.720630  1
  C  C83  1  0.745140  0.363310  0.720870  1
  C  C84  1  0.812130  0.495670  0.651320  1
  C  C85  1  1.003220  0.373680  0.544400  1
  C  C86  1  1.079320  0.480630  0.635060  1
  C  C87  1  1.037130  0.193720  0.750160  1
  C  C88  1  0.910540  0.164600  0.657690  1
  C  C89  1  -0.035220  1.089390  0.289700  1
  C  C90  1  -0.182460  1.106430  0.164590  1
  C  C91  1  0.039440  1.113850  0.123810  1
  C  C92  1  -0.056950  1.276250  0.220630  1
  C  C93  1  -0.027150  1.065460  0.353040  1
  C  C94  1  -0.254860  1.136690  0.220870  1
  C  C95  1  -0.187870  1.004330  0.151320  1
  C  C96  1  0.003220  1.126320  0.044400  1
  C  C97  1  0.079320  1.019370  0.135060  1
  C  C98  1  0.037130  1.306280  0.250160  1
  C  C99  1  -0.089460  1.335400  0.157690  1
  C  C100  1  -0.015420  1.034440  0.427540  1
  C  C101  1  0.052540  1.075410  0.473390  1
  C  C102  1  -0.069680  0.961170  0.453770  1
  C  C103  1  0.102250  1.152440  0.450710  1
  C  C104  1  0.069680  1.038830  0.546230  1
  C  C105  1  -0.052540  0.924590  0.526610  1
  C  C106  1  -0.140580  0.922160  0.410800  1
  C  C107  1  0.168780  1.192830  0.494900  1
  C  C108  1  0.015420  0.965560  0.572460  1
  C  C109  1  0.140580  1.077840  0.589200  1
  C  C110  1  -0.102250  0.847560  0.549290  1
  C  C111  1  -0.190300  0.847260  0.434510  1
  C  C112  1  0.216750  1.273760  0.473690  1
  C  C113  1  0.190300  1.152740  0.565490  1
  C  C114  1  0.027150  0.934540  0.646960  1
  C  C115  1  -0.168780  0.807170  0.505100  1
  C  C116  1  -0.262040  0.806750  0.390820  1
  C  C117  1  0.282940  1.310460  0.517480  1
  C  C118  1  0.262040  1.193250  0.609180  1
  C  C119  1  0.035220  0.910610  0.710300  1
  C  C120  1  -0.216750  0.726240  0.526310  1
  C  C121  1  -0.306420  0.731050  0.413760  1
  C  C122  1  0.306420  1.268950  0.586240  1
  C  C123  1  -0.282940  0.689540  0.482520  1
  C  C124  1  0.182460  0.893570  0.835410  1
  C  C125  1  -0.039440  0.886150  0.876190  1
  C  C126  1  0.056950  0.723750  0.779370  1
  C  C127  1  0.254860  0.863310  0.779130  1
  C  C128  1  0.187870  0.995670  0.848680  1
  C  C129  1  -0.003220  0.873680  0.955600  1
  C  C130  1  -0.079320  0.980630  0.864940  1
  C  C131  1  -0.037130  0.693720  0.749840  1
  C  C132  1  0.089460  0.664600  0.842310  1
  C  C133  1  0.535220  -0.089390  0.789700  1
  C  C134  1  0.682460  -0.106430  0.664590  1
  C  C135  1  0.460560  -0.113850  0.623810  1
  C  C136  1  0.556950  -0.276250  0.720630  1
  C  C137  1  0.527150  -0.065460  0.853040  1
  C  C138  1  0.754860  -0.136690  0.720870  1
  C  C139  1  0.687870  -0.004330  0.651320  1
  C  C140  1  0.496780  -0.126320  0.544400  1
  C  C141  1  0.420680  -0.019370  0.635060  1
  C  C142  1  0.462870  -0.306280  0.750160  1
  C  C143  1  0.589460  -0.335400  0.657690  1
  C  C144  1  0.515420  -0.034440  0.927540  1
  C  C145  1  0.447460  -0.075410  0.973390  1
  C  C146  1  0.569680  0.038830  0.953770  1
  C  C147  1  0.397750  -0.152440  0.950710  1
  C  C148  1  0.430320  -0.038830  1.046230  1
  C  C149  1  0.552540  0.075410  1.026610  1
  C  C150  1  0.640580  0.077840  0.910800  1
  C  C151  1  0.331220  -0.192830  0.994900  1
  C  C152  1  0.484580  0.034440  1.072460  1
  C  C153  1  0.359420  -0.077840  1.089200  1
  C  C154  1  0.602250  0.152440  1.049290  1
  C  C155  1  0.690300  0.152740  0.934510  1
  C  C156  1  0.283250  -0.273760  0.973690  1
  C  C157  1  0.309700  -0.152740  1.065490  1
  C  C158  1  0.472850  0.065460  1.146960  1
  C  C159  1  0.668780  0.192830  1.005100  1
  C  C160  1  0.762040  0.193250  0.890820  1
  C  C161  1  0.217060  -0.310460  1.017480  1
  C  C162  1  0.237960  -0.193250  1.109180  1
  C  C163  1  0.464780  0.089390  1.210300  1
  C  C164  1  0.716750  0.273760  1.026310  1
  C  C165  1  0.806420  0.268950  0.913760  1
  C  C166  1  0.193580  -0.268950  1.086240  1
  C  C167  1  0.782940  0.310460  0.982520  1
  C  C168  1  0.317540  0.106430  1.335410  1
  C  C169  1  0.539440  0.113850  1.376190  1
  C  C170  1  0.443050  0.276250  1.279370  1
  C  C171  1  0.245140  0.136690  1.279130  1
  C  C172  1  0.312130  0.004330  1.348680  1
  C  C173  1  0.503220  0.126320  1.455600  1
  C  C174  1  0.579320  0.019370  1.364940  1
  C  C175  1  0.537130  0.306280  1.249840  1
  C  C176  1  0.410540  0.335400  1.342310  1
  Ge  Ge177  1  0.441960  0.353760  0.804660  1.0
  Ge  Ge178  1  0.558040  0.646240  0.195340  1
  Ge  Ge179  1  1.058040  0.646240  1.304660  1.0
  Ge  Ge180  1  0.941960  0.353760  0.695340  1
  Ge  Ge181  1  -0.058040  1.146240  0.195340  1.0
  Ge  Ge182  1  0.058040  0.853760  0.804660  1
  Ge  Ge183  1  0.558040  -0.146240  0.695340  1.0
  Ge  Ge184  1  0.441960  0.146240  1.304660  1
  H  H185  1  0.303000  0.362700  0.883300  1
  H  H186  1  0.591400  0.342100  0.869200  1
  H  H187  1  0.397600  0.215400  0.738200  1
  H  H188  1  0.183700  0.384000  0.794900  1
  H  H189  1  0.245400  0.297000  0.775600  1
  H  H190  1  0.259800  0.389500  0.730700  1
  H  H191  1  0.324600  0.527900  0.802300  1
  H  H192  1  0.358300  0.513200  0.885800  1
  H  H193  1  0.250000  0.511500  0.866500  1
  H  H194  1  0.553100  0.386900  0.990800  1
  H  H195  1  0.482300  0.311000  0.962300  1
  H  H196  1  0.451300  0.415200  0.964200  1
  H  H197  1  0.531000  0.526000  0.873900  1
  H  H198  1  0.602000  0.486500  0.814100  1
  H  H199  1  0.630700  0.490300  0.899500  1
  H  H200  1  0.584800  0.205100  0.787300  1
  H  H201  1  0.551800  0.228000  0.704900  1
  H  H202  1  0.535300  0.128800  0.738400  1
  H  H203  1  0.410100  0.101000  0.826400  1
  H  H204  1  0.347800  0.182700  0.856900  1
  H  H205  1  0.452600  0.171700  0.884500  1
  H  H206  1  0.589800  0.322300  0.596600  1
  H  H207  1  0.345200  0.552000  0.635900  1
  H  H208  1  0.654800  0.448000  0.364100  1
  H  H209  1  0.410200  0.677700  0.403400  1
  H  H210  1  0.701900  0.197800  0.571900  1
  H  H211  1  0.221300  0.666400  0.655100  1
  H  H212  1  0.814000  0.135800  0.497700  1
  H  H213  1  0.778700  0.333600  0.344900  1
  H  H214  1  0.298100  0.802200  0.428100  1
  H  H215  1  0.146300  0.794800  0.616200  1
  H  H216  1  0.853700  0.205200  0.383800  1
  H  H217  1  0.186000  0.864200  0.502300  1
  H  H218  1  0.697000  0.637300  0.116700  1
  H  H219  1  0.408600  0.657900  0.130800  1
  H  H220  1  0.602400  0.784600  0.261800  1
  H  H221  1  0.816300  0.616000  0.205100  1
  H  H222  1  0.754600  0.703000  0.224400  1
  H  H223  1  0.740200  0.610500  0.269300  1
  H  H224  1  0.675400  0.472100  0.197700  1
  H  H225  1  0.641700  0.486800  0.114200  1
  H  H226  1  0.750000  0.488500  0.133500  1
  H  H227  1  0.446900  0.613100  0.009200  1
  H  H228  1  0.517700  0.689000  0.037700  1
  H  H229  1  0.548700  0.584800  0.035800  1
  H  H230  1  0.469000  0.474000  0.126100  1
  H  H231  1  0.398000  0.513500  0.185900  1
  H  H232  1  0.369300  0.509700  0.100500  1
  H  H233  1  0.415200  0.794900  0.212700  1
  H  H234  1  0.448200  0.772000  0.295100  1
  H  H235  1  0.464700  0.871200  0.261600  1
  H  H236  1  0.589900  0.899000  0.173600  1
  H  H237  1  0.652200  0.817300  0.143100  1
  H  H238  1  0.547400  0.828300  0.115500  1
  H  H239  1  1.197000  0.637300  1.383300  1
  H  H240  1  0.908600  0.657900  1.369200  1
  H  H241  1  1.102400  0.784600  1.238200  1
  H  H242  1  1.316300  0.616000  1.294900  1
  H  H243  1  1.254600  0.703000  1.275600  1
  H  H244  1  1.240200  0.610500  1.230700  1
  H  H245  1  1.175400  0.472100  1.302300  1
  H  H246  1  1.141700  0.486800  1.385800  1
  H  H247  1  1.250000  0.488500  1.366500  1
  H  H248  1  0.946900  0.613100  1.490800  1
  H  H249  1  1.017700  0.689000  1.462300  1
  H  H250  1  1.048700  0.584800  1.464200  1
  H  H251  1  0.969000  0.474000  1.373900  1
  H  H252  1  0.898000  0.513500  1.314100  1
  H  H253  1  0.869300  0.509700  1.399500  1
  H  H254  1  0.915200  0.794900  1.287300  1
  H  H255  1  0.948200  0.772000  1.204900  1
  H  H256  1  0.964700  0.871200  1.238400  1
  H  H257  1  1.089900  0.899000  1.326400  1
  H  H258  1  1.152200  0.817300  1.356900  1
  H  H259  1  1.047400  0.828300  1.384500  1
  H  H260  1  0.910200  0.677700  1.096600  1
  H  H261  1  1.154800  0.448000  1.135900  1
  H  H262  1  0.845200  0.552000  0.864100  1
  H  H263  1  1.089800  0.322300  0.903400  1
  H  H264  1  0.798100  0.802200  1.071900  1
  H  H265  1  1.278700  0.333600  1.155100  1
  H  H266  1  0.686000  0.864200  0.997700  1
  H  H267  1  0.721300  0.666400  0.844900  1
  H  H268  1  1.201900  0.197800  0.928100  1
  H  H269  1  1.353700  0.205200  1.116200  1
  H  H270  1  0.646300  0.794800  0.883800  1
  H  H271  1  1.314000  0.135800  1.002300  1
  H  H272  1  0.803000  0.362700  0.616700  1
  H  H273  1  1.091400  0.342100  0.630800  1
  H  H274  1  0.897600  0.215400  0.761800  1
  H  H275  1  0.683700  0.384000  0.705100  1
  H  H276  1  0.745400  0.297000  0.724400  1
  H  H277  1  0.759800  0.389500  0.769300  1
  H  H278  1  0.824600  0.527900  0.697700  1
  H  H279  1  0.858300  0.513200  0.614200  1
  H  H280  1  0.750000  0.511500  0.633500  1
  H  H281  1  1.053100  0.386900  0.509200  1
  H  H282  1  0.982300  0.311000  0.537700  1
  H  H283  1  0.951300  0.415200  0.535800  1
  H  H284  1  1.031000  0.526000  0.626100  1
  H  H285  1  1.102000  0.486500  0.685900  1
  H  H286  1  1.130700  0.490300  0.600500  1
  H  H287  1  1.084800  0.205100  0.712700  1
  H  H288  1  1.051800  0.228000  0.795100  1
  H  H289  1  1.035300  0.128800  0.761600  1
  H  H290  1  0.910100  0.101000  0.673600  1
  H  H291  1  0.847800  0.182700  0.643100  1
  H  H292  1  0.952600  0.171700  0.615500  1
  H  H293  1  -0.197000  1.137300  0.116700  1
  H  H294  1  0.091400  1.157900  0.130800  1
  H  H295  1  -0.102400  1.284600  0.261800  1
  H  H296  1  -0.316300  1.116000  0.205100  1
  H  H297  1  -0.254600  1.203000  0.224400  1
  H  H298  1  -0.240200  1.110500  0.269300  1
  H  H299  1  -0.175400  0.972100  0.197700  1
  H  H300  1  -0.141700  0.986800  0.114200  1
  H  H301  1  -0.250000  0.988500  0.133500  1
  H  H302  1  0.053100  1.113100  0.009200  1
  H  H303  1  -0.017700  1.189000  0.037700  1
  H  H304  1  -0.048700  1.084800  0.035800  1
  H  H305  1  0.031000  0.974000  0.126100  1
  H  H306  1  0.102000  1.013500  0.185900  1
  H  H307  1  0.130700  1.009700  0.100500  1
  H  H308  1  0.084800  1.294900  0.212700  1
  H  H309  1  0.051800  1.272000  0.295100  1
  H  H310  1  0.035300  1.371200  0.261600  1
  H  H311  1  -0.089900  1.399000  0.173600  1
  H  H312  1  -0.152200  1.317300  0.143100  1
  H  H313  1  -0.047400  1.328300  0.115500  1
  H  H314  1  0.089800  1.177700  0.403400  1
  H  H315  1  -0.154800  0.948000  0.364100  1
  H  H316  1  0.154800  1.052000  0.635900  1
  H  H317  1  -0.089800  0.822300  0.596600  1
  H  H318  1  0.201900  1.302200  0.428100  1
  H  H319  1  -0.278700  0.833600  0.344900  1
  H  H320  1  0.314000  1.364200  0.502300  1
  H  H321  1  0.278700  1.166400  0.655100  1
  H  H322  1  -0.201900  0.697800  0.571900  1
  H  H323  1  -0.353700  0.705200  0.383800  1
  H  H324  1  0.353700  1.294800  0.616200  1
  H  H325  1  -0.314000  0.635800  0.497700  1
  H  H326  1  0.197000  0.862700  0.883300  1
  H  H327  1  -0.091400  0.842100  0.869200  1
  H  H328  1  0.102400  0.715400  0.738200  1
  H  H329  1  0.316300  0.884000  0.794900  1
  H  H330  1  0.254600  0.797000  0.775600  1
  H  H331  1  0.240200  0.889500  0.730700  1
  H  H332  1  0.175400  1.027900  0.802300  1
  H  H333  1  0.141700  1.013200  0.885800  1
  H  H334  1  0.250000  1.011500  0.866500  1
  H  H335  1  -0.053100  0.886900  0.990800  1
  H  H336  1  0.017700  0.811000  0.962300  1
  H  H337  1  0.048700  0.915200  0.964200  1
  H  H338  1  -0.031000  1.026000  0.873900  1
  H  H339  1  -0.102000  0.986500  0.814100  1
  H  H340  1  -0.130700  0.990300  0.899500  1
  H  H341  1  -0.084800  0.705100  0.787300  1
  H  H342  1  -0.051800  0.728000  0.704900  1
  H  H343  1  -0.035300  0.628800  0.738400  1
  H  H344  1  0.089900  0.601000  0.826400  1
  H  H345  1  0.152200  0.682700  0.856900  1
  H  H346  1  0.047400  0.671700  0.884500  1
  H  H347  1  0.697000  -0.137300  0.616700  1
  H  H348  1  0.408600  -0.157900  0.630800  1
  H  H349  1  0.602400  -0.284600  0.761800  1
  H  H350  1  0.816300  -0.116000  0.705100  1
  H  H351  1  0.754600  -0.203000  0.724400  1
  H  H352  1  0.740200  -0.110500  0.769300  1
  H  H353  1  0.675400  0.027900  0.697700  1
  H  H354  1  0.641700  0.013200  0.614200  1
  H  H355  1  0.750000  0.011500  0.633500  1
  H  H356  1  0.446900  -0.113100  0.509200  1
  H  H357  1  0.517700  -0.189000  0.537700  1
  H  H358  1  0.548700  -0.084800  0.535800  1
  H  H359  1  0.469000  0.026000  0.626100  1
  H  H360  1  0.398000  -0.013500  0.685900  1
  H  H361  1  0.369300  -0.009700  0.600500  1
  H  H362  1  0.415200  -0.294900  0.712700  1
  H  H363  1  0.448200  -0.272000  0.795100  1
  H  H364  1  0.464700  -0.371200  0.761600  1
  H  H365  1  0.589900  -0.399000  0.673600  1
  H  H366  1  0.652200  -0.317300  0.643100  1
  H  H367  1  0.547400  -0.328300  0.615500  1
  H  H368  1  0.410200  -0.177700  0.903400  1
  H  H369  1  0.654800  0.052000  0.864100  1
  H  H370  1  0.345200  -0.052000  1.135900  1
  H  H371  1  0.589800  0.177700  1.096600  1
  H  H372  1  0.298100  -0.302200  0.928100  1
  H  H373  1  0.778700  0.166400  0.844900  1
  H  H374  1  0.186000  -0.364200  1.002300  1
  H  H375  1  0.221300  -0.166400  1.155100  1
  H  H376  1  0.701900  0.302200  1.071900  1
  H  H377  1  0.853700  0.294800  0.883800  1
  H  H378  1  0.146300  -0.294800  1.116200  1
  H  H379  1  0.814000  0.364200  0.997700  1
  H  H380  1  0.303000  0.137300  1.383300  1
  H  H381  1  0.591400  0.157900  1.369200  1
  H  H382  1  0.397600  0.284600  1.238200  1
  H  H383  1  0.183700  0.116000  1.294900  1
  H  H384  1  0.245400  0.203000  1.275600  1
  H  H385  1  0.259800  0.110500  1.230700  1
  H  H386  1  0.324600  -0.027900  1.302300  1
  H  H387  1  0.358300  -0.013200  1.385800  1
  H  H388  1  0.250000  -0.011500  1.366500  1
  H  H389  1  0.553100  0.113100  1.490800  1
  H  H390  1  0.482300  0.189000  1.462300  1
  H  H391  1  0.451300  0.084800  1.464200  1
  H  H392  1  0.531000  -0.026000  1.373900  1
  H  H393  1  0.602000  0.013500  1.314100  1
  H  H394  1  0.630700  0.009700  1.399500  1
  H  H395  1  0.584800  0.294900  1.287300  1
  H  H396  1  0.551800  0.272000  1.204900  1
  H  H397  1  0.535300  0.371200  1.238400  1
  H  H398  1  0.410100  0.399000  1.326400  1
  H  H399  1  0.347800  0.317300  1.356900  1
  H  H400  1  0.452600  0.328300  1.384500  1
