# generated using pymatgen
data_Si4H35C26
_symmetry_space_group_name_H-M   'P 1'
_cell_length_a   9.23000000
_cell_length_b   24.68000000
_cell_length_c   25.40000000
_cell_angle_alpha   94.32000000
_cell_angle_beta   95.14000000
_cell_angle_gamma   90.35000000
_symmetry_Int_Tables_number   1
_chemical_formula_structural   Si4H35C26
_chemical_formula_sum   'Si32 H280 C208'
_cell_volume   5745.90743603
_cell_formula_units_Z   8
loop_
 _symmetry_equiv_pos_site_id
 _symmetry_equiv_pos_as_xyz
  1  'x, y, z'
loop_
 _atom_site_type_symbol
 _atom_site_label
 _atom_site_symmetry_multiplicity
 _atom_site_fract_x
 _atom_site_fract_y
 _atom_site_fract_z
 _atom_site_occupancy
  C  C1  1  0.277600  0.303000  0.399200  1
  C  C2  1  0.615900  0.375600  0.477000  1
  C  C3  1  0.581300  0.270500  0.527100  1
  C  C4  1  0.472900  0.373200  0.579900  1
  C  C5  1  0.227300  0.191600  0.481300  1
  C  C6  1  0.089000  0.261400  0.564600  1
  C  C7  1  -0.048900  0.249900  0.453800  1
  C  C8  1  0.084000  0.424900  0.533600  1
  C  C9  1  -0.005700  0.408100  0.418800  1
  C  C10  1  0.278900  0.465000  0.452300  1
  C  C11  1  0.262400  0.284500  0.353800  1
  C  C12  1  0.236100  0.264300  0.299300  1
  C  C13  1  0.100600  0.274900  0.271600  1
  C  C14  1  0.346900  0.236700  0.273600  1
  C  C15  1  -0.010600  0.300500  0.296200  1
  C  C16  1  0.075700  0.257000  0.215500  1
  C  C17  1  0.319900  0.219100  0.217500  1
  C  C18  1  0.479900  0.225100  0.300500  1
  C  C19  1  -0.142800  0.310600  0.270100  1
  C  C20  1  -0.057800  0.268600  0.188700  1
  C  C21  1  0.186100  0.229700  0.189400  1
  C  C22  1  0.430900  0.192300  0.192500  1
  C  C23  1  0.590900  0.198200  0.275500  1
  C  C24  1  -0.255300  0.336900  0.295700  1
  C  C25  1  -0.169100  0.294900  0.214100  1
  C  C26  1  0.163400  0.211700  0.134400  1
  C  C27  1  0.565300  0.181400  0.219400  1
  C  C28  1  0.725900  0.186900  0.301600  1
  C  C29  1  -0.386600  0.348300  0.268600  1
  C  C30  1  -0.302500  0.306200  0.187300  1
  C  C31  1  0.153800  0.194900  0.088800  1
  C  C32  1  0.676900  0.155200  0.194000  1
  C  C33  1  0.834200  0.161400  0.276200  1
  C  C34  1  -0.501500  0.374700  0.294100  1
  C  C35  1  -0.411000  0.332400  0.212700  1
  C  C36  1  0.808200  0.145100  0.219800  1
  C  C37  1  0.971400  0.150300  0.302700  1
  C  C38  1  -0.628900  0.384700  0.267600  1
  C  C39  1  -0.548700  0.344700  0.186500  1
  C  C40  1  0.923600  0.119400  0.194200  1
  C  C41  1  1.075800  0.125500  0.276300  1
  C  C42  1  -0.652900  0.370200  0.212100  1
  C  C43  1  0.133700  0.043300  0.064000  1
  C  C44  1  0.441900  0.083000  0.056900  1
  C  C45  1  0.245900  0.047000  -0.045200  1
  C  C46  1  0.490100  0.243300  0.044000  1
  C  C47  1  0.399900  0.210200  -0.072900  1
  C  C48  1  0.244700  0.299600  -0.012100  1
  C  C49  1  -0.055600  0.147900  -0.097500  1
  C  C50  1  -0.141000  0.238300  -0.022200  1
  C  C51  1  -0.190000  0.122400  0.001400  1
  C  C52  1  1.051600  0.110000  0.221800  1
  C  C53  1  -0.277600  -0.303000  -0.399200  1
  C  C54  1  -0.615900  -0.375600  -0.477000  1
  C  C55  1  -0.581300  -0.270500  -0.527100  1
  C  C56  1  -0.472900  -0.373200  -0.579900  1
  C  C57  1  -0.227300  -0.191600  -0.481300  1
  C  C58  1  -0.089000  -0.261400  -0.564600  1
  C  C59  1  0.048900  -0.249900  -0.453800  1
  C  C60  1  -0.084000  -0.424900  -0.533600  1
  C  C61  1  0.005700  -0.408100  -0.418800  1
  C  C62  1  -0.278900  -0.465000  -0.452300  1
  C  C63  1  -0.262400  -0.284500  -0.353800  1
  C  C64  1  -0.236100  -0.264300  -0.299300  1
  C  C65  1  -0.100600  -0.274900  -0.271600  1
  C  C66  1  -0.346900  -0.236700  -0.273600  1
  C  C67  1  0.010600  -0.300500  -0.296200  1
  C  C68  1  -0.075700  -0.257000  -0.215500  1
  C  C69  1  -0.319900  -0.219100  -0.217500  1
  C  C70  1  -0.479900  -0.225100  -0.300500  1
  C  C71  1  0.142800  -0.310600  -0.270100  1
  C  C72  1  0.057800  -0.268600  -0.188700  1
  C  C73  1  -0.186100  -0.229700  -0.189400  1
  C  C74  1  -0.430900  -0.192300  -0.192500  1
  C  C75  1  -0.590900  -0.198200  -0.275500  1
  C  C76  1  0.255300  -0.336900  -0.295700  1
  C  C77  1  0.169100  -0.294900  -0.214100  1
  C  C78  1  -0.163400  -0.211700  -0.134400  1
  C  C79  1  -0.565300  -0.181400  -0.219400  1
  C  C80  1  -0.725900  -0.186900  -0.301600  1
  C  C81  1  0.386600  -0.348300  -0.268600  1
  C  C82  1  0.302500  -0.306200  -0.187300  1
  C  C83  1  -0.153800  -0.194900  -0.088800  1
  C  C84  1  -0.676900  -0.155200  -0.194000  1
  C  C85  1  -0.834200  -0.161400  -0.276200  1
  C  C86  1  0.501500  -0.374700  -0.294100  1
  C  C87  1  0.411000  -0.332400  -0.212700  1
  C  C88  1  -0.808200  -0.145100  -0.219800  1
  C  C89  1  -0.971400  -0.150300  -0.302700  1
  C  C90  1  0.628900  -0.384700  -0.267600  1
  C  C91  1  0.548700  -0.344700  -0.186500  1
  C  C92  1  -0.923600  -0.119400  -0.194200  1
  C  C93  1  -1.075800  -0.125500  -0.276300  1
  C  C94  1  0.652900  -0.370200  -0.212100  1
  C  C95  1  -0.133700  -0.043300  -0.064000  1
  C  C96  1  -0.441900  -0.083000  -0.056900  1
  C  C97  1  -0.245900  -0.047000  0.045200  1
  C  C98  1  -0.490100  -0.243300  -0.044000  1
  C  C99  1  -0.399900  -0.210200  0.072900  1
  C  C100  1  -0.244700  -0.299600  0.012100  1
  C  C101  1  0.055600  -0.147900  0.097500  1
  C  C102  1  0.141000  -0.238300  0.022200  1
  C  C103  1  0.190000  -0.122400  -0.001400  1
  C  C104  1  -1.051600  -0.110000  -0.221800  1
  C  C105  1  0.002500  0.553000  0.154900  1
  C  C106  1  0.324000  0.629900  0.224000  1
  C  C107  1  0.292100  0.535700  0.290500  1
  C  C108  1  0.180100  0.647300  0.325800  1
  C  C109  1  -0.049400  0.447100  0.240900  1
  C  C110  1  -0.176000  0.522100  0.325500  1
  C  C111  1  -0.339100  0.505300  0.217400  1
  C  C112  1  -0.225400  0.679900  0.279500  1
  C  C113  1  -0.305800  0.651500  0.163500  1
  C  C114  1  -0.031000  0.714400  0.191900  1
  C  C115  1  0.003700  0.533700  0.109800  1
  C  C116  1  0.000400  0.515100  0.055500  1
  C  C117  1  -0.123100  0.524900  0.021100  1
  C  C118  1  0.123300  0.488700  0.035600  1
  C  C119  1  -0.248800  0.546600  0.040300  1
  C  C120  1  -0.123300  0.511300  -0.035600  1
  C  C121  1  0.123100  0.475100  -0.021100  1
  C  C122  1  0.245100  0.476400  0.068900  1
  C  C123  1  -0.371400  0.557500  0.007200  1
  C  C124  1  -0.000400  0.484900  -0.055500  1
  C  C125  1  -0.245100  0.523600  -0.068900  1
  C  C126  1  0.248800  0.453400  -0.040300  1
  C  C127  1  0.368300  0.452500  0.050000  1
  C  C128  1  -0.498100  0.579000  0.026500  1
  C  C129  1  -0.368300  0.547500  -0.050000  1
  C  C130  1  -0.003700  0.466300  -0.109800  1
  C  C131  1  0.371400  0.442500  -0.007200  1
  C  C132  1  0.490300  0.439500  0.083100  1
  C  C133  1  -0.619200  0.590900  -0.006400  1
  C  C134  1  -0.490300  0.560500  -0.083100  1
  C  C135  1  -0.002500  0.447000  -0.154900  1
  C  C136  1  0.498100  0.421000  -0.026500  1
  C  C137  1  0.613100  0.418000  0.062500  1
  C  C138  1  -0.749200  0.611500  0.013200  1
  C  C139  1  -0.613100  0.582000  -0.062500  1
  C  C140  1  0.619200  0.409100  0.006400  1
  C  C141  1  0.736600  0.405100  0.096400  1
  C  C142  1  -0.864400  0.621600  -0.020600  1
  C  C143  1  -0.736600  0.594900  -0.096400  1
  C  C144  1  0.749200  0.388500  -0.013200  1
  C  C145  1  0.859600  0.386200  0.076100  1
  C  C146  1  -0.859600  0.613800  -0.076100  1
  C  C147  1  -0.324000  0.370100  -0.224000  1
  C  C148  1  -0.292100  0.464300  -0.290500  1
  C  C149  1  -0.180100  0.352700  -0.325800  1
  C  C150  1  0.049400  0.552900  -0.240900  1
  C  C151  1  0.176000  0.477900  -0.325500  1
  C  C152  1  0.339100  0.494700  -0.217400  1
  C  C153  1  0.225400  0.320100  -0.279500  1
  C  C154  1  0.305800  0.348500  -0.163500  1
  C  C155  1  0.031000  0.285600  -0.191900  1
  C  C156  1  0.864400  0.378400  0.020600  1
  C  C157  1  0.504500  -0.051600  0.345000  1
  C  C158  1  0.447200  0.043900  0.238300  1
  C  C159  1  0.199000  -0.036500  0.217900  1
  C  C160  1  0.445700  -0.051800  0.149000  1
  C  C161  1  0.429000  -0.209600  0.214800  1
  C  C162  1  0.227200  -0.164400  0.295000  1
  C  C163  1  0.515000  -0.204400  0.333500  1
  C  C164  1  0.808100  -0.126700  0.209500  1
  C  C165  1  0.861600  -0.115700  0.323000  1
  C  C166  1  0.834200  -0.015900  0.267800  1
  C  C167  1  0.501300  -0.033900  0.390600  1
  C  C168  1  0.500900  -0.015900  0.445100  1
  C  C169  1  0.624300  -0.024900  0.480000  1
  C  C170  1  0.376800  0.009900  0.463800  1
  C  C171  1  0.748800  -0.048000  0.461700  1
  C  C172  1  0.623200  -0.009900  0.536200  1
  C  C173  1  0.375700  0.024900  0.520000  1
  C  C174  1  0.254100  0.020500  0.429700  1
  C  C175  1  0.872300  -0.057500  0.495400  1
  C  C176  1  0.499100  0.015900  0.554900  1
  C  C177  1  0.745900  -0.020500  0.570300  1
  C  C178  1  0.251200  0.048000  0.538300  1
  C  C179  1  0.129500  0.044400  0.448300  1
  C  C180  1  0.999100  -0.080500  0.476900  1
  C  C181  1  0.870500  -0.044400  0.551700  1
  C  C182  1  0.498700  0.033900  0.609400  1
  C  C183  1  0.127700  0.057500  0.504600  1
  C  C184  1  0.007700  0.056000  0.414300  1
  C  C185  1  1.119200  -0.090400  0.510300  1
  C  C186  1  0.992300  -0.056000  0.585700  1
  C  C187  1  0.495500  0.051600  0.655000  1
  C  C188  1  0.000900  0.080500  0.523100  1
  C  C189  1  -0.116300  0.078100  0.433100  1
  C  C190  1  1.248900  -0.112600  0.492200  1
  C  C191  1  1.116300  -0.078100  0.566900  1
  C  C192  1  -0.119200  0.090400  0.489700  1
  C  C193  1  -0.242400  0.088300  0.399200  1
  C  C194  1  1.365200  -0.121800  0.526200  1
  C  C195  1  1.242400  -0.088300  0.600800  1
  C  C196  1  -0.248900  0.112600  0.507800  1
  C  C197  1  -0.362100  0.109600  0.418800  1
  C  C198  1  1.362100  -0.109600  0.581200  1
  C  C199  1  0.552800  -0.043900  0.761700  1
  C  C200  1  0.801000  0.036500  0.782100  1
  C  C201  1  0.554300  0.051800  0.851000  1
  C  C202  1  0.571000  0.209600  0.785200  1
  C  C203  1  0.772800  0.164400  0.705000  1
  C  C204  1  0.485000  0.204400  0.666500  1
  C  C205  1  0.191900  0.126700  0.790500  1
  C  C206  1  0.138400  0.115700  0.677000  1
  C  C207  1  0.165800  0.015900  0.732200  1
  C  C208  1  -0.365200  0.121800  0.473800  1
  H  H209  1  0.709000  0.382800  0.498200  1
  H  H210  1  0.569800  0.410100  0.469300  1
  H  H211  1  0.632800  0.354900  0.443700  1
  H  H212  1  0.598300  0.250700  0.493400  1
  H  H213  1  0.516500  0.249000  0.546200  1
  H  H214  1  0.674100  0.277000  0.548700  1
  H  H215  1  0.568700  0.382500  0.598400  1
  H  H216  1  0.419400  0.350000  0.601400  1
  H  H217  1  0.418400  0.406600  0.574400  1
  H  H218  1  0.287600  0.183300  0.513400  1
  H  H219  1  0.289700  0.196400  0.452700  1
  H  H220  1  0.158600  0.161500  0.470600  1
  H  H221  1  0.036100  0.294900  0.572500  1
  H  H222  1  0.181800  0.262200  0.586700  1
  H  H223  1  0.030700  0.230100  0.572100  1
  H  H224  1  -0.106100  0.219600  0.464300  1
  H  H225  1  -0.029800  0.243200  0.416500  1
  H  H226  1  -0.103400  0.283700  0.458200  1
  H  H227  1  0.165600  0.435000  0.560000  1
  H  H228  1  0.035500  0.392200  0.543500  1
  H  H229  1  0.014700  0.454700  0.532100  1
  H  H230  1  -0.049600  0.444100  0.418200  1
  H  H231  1  -0.076800  0.381900  0.428600  1
  H  H232  1  0.024000  0.396800  0.383600  1
  H  H233  1  0.318900  0.454900  0.418500  1
  H  H234  1  0.358400  0.469600  0.480600  1
  H  H235  1  0.226000  0.499100  0.449800  1
  H  H236  1  0.005300  0.311700  0.332900  1
  H  H237  1  0.495800  0.235900  0.337300  1
  H  H238  1  -0.073700  0.258300  0.151800  1
  H  H239  1  0.414500  0.181100  0.155900  1
  H  H240  1  -0.240400  0.347000  0.332600  1
  H  H241  1  0.743200  0.197400  0.338400  1
  H  H242  1  -0.319100  0.295500  0.150500  1
  H  H243  1  0.660300  0.144100  0.157300  1
  H  H244  1  -0.487100  0.385300  0.331000  1
  H  H245  1  0.989900  0.160400  0.339500  1
  H  H246  1  -0.704100  0.401600  0.285800  1
  H  H247  1  -0.567200  0.334400  0.149700  1
  H  H248  1  0.910300  0.108900  0.157300  1
  H  H249  1  1.167000  0.118400  0.294800  1
  H  H250  1  -0.742500  0.378500  0.193200  1
  H  H251  1  0.175700  0.007600  0.069500  1
  H  H252  1  0.036200  0.038600  0.045400  1
  H  H253  1  0.127200  0.063600  0.098400  1
  H  H254  1  0.442300  0.101600  0.092400  1
  H  H255  1  0.507000  0.102300  0.036000  1
  H  H256  1  0.475400  0.045600  0.059900  1
  H  H257  1  0.287600  0.010700  -0.043300  1
  H  H258  1  0.301900  0.068400  -0.067500  1
  H  H259  1  0.144600  0.043800  -0.060500  1
  H  H260  1  0.554100  0.272300  0.034900  1
  H  H261  1  0.544600  0.209500  0.045800  1
  H  H262  1  0.453800  0.253300  0.078500  1
  H  H263  1  0.316800  0.204100  -0.099500  1
  H  H264  1  0.453200  0.176200  -0.069400  1
  H  H265  1  0.464600  0.238000  -0.083900  1
  H  H266  1  0.203800  0.310200  0.021400  1
  H  H267  1  0.166500  0.296900  -0.041000  1
  H  H268  1  0.316300  0.327000  -0.019100  1
  H  H269  1  -0.153700  0.146800  -0.115900  1
  H  H270  1  -0.013300  0.111600  -0.100400  1
  H  H271  1  0.005400  0.173500  -0.113600  1
  H  H272  1  -0.242000  0.236900  -0.037900  1
  H  H273  1  -0.083600  0.262300  -0.041600  1
  H  H274  1  -0.138100  0.252400  0.015000  1
  H  H275  1  -0.198300  0.133300  0.038900  1
  H  H276  1  -0.150900  0.085600  -0.002000  1
  H  H277  1  -0.286200  0.123000  -0.018200  1
  H  H278  1  1.126900  0.092600  0.204000  1
  H  H279  1  -0.709000  -0.382800  -0.498200  1
  H  H280  1  -0.569800  -0.410100  -0.469300  1
  H  H281  1  -0.632800  -0.354900  -0.443700  1
  H  H282  1  -0.598300  -0.250700  -0.493400  1
  H  H283  1  -0.516500  -0.249000  -0.546200  1
  H  H284  1  -0.674100  -0.277000  -0.548700  1
  H  H285  1  -0.568700  -0.382500  -0.598400  1
  H  H286  1  -0.419400  -0.350000  -0.601400  1
  H  H287  1  -0.418400  -0.406600  -0.574400  1
  H  H288  1  -0.287600  -0.183300  -0.513400  1
  H  H289  1  -0.289700  -0.196400  -0.452700  1
  H  H290  1  -0.158600  -0.161500  -0.470600  1
  H  H291  1  -0.036100  -0.294900  -0.572500  1
  H  H292  1  -0.181800  -0.262200  -0.586700  1
  H  H293  1  -0.030700  -0.230100  -0.572100  1
  H  H294  1  0.106100  -0.219600  -0.464300  1
  H  H295  1  0.029800  -0.243200  -0.416500  1
  H  H296  1  0.103400  -0.283700  -0.458200  1
  H  H297  1  -0.165600  -0.435000  -0.560000  1
  H  H298  1  -0.035500  -0.392200  -0.543500  1
  H  H299  1  -0.014700  -0.454700  -0.532100  1
  H  H300  1  0.049600  -0.444100  -0.418200  1
  H  H301  1  0.076800  -0.381900  -0.428600  1
  H  H302  1  -0.024000  -0.396800  -0.383600  1
  H  H303  1  -0.318900  -0.454900  -0.418500  1
  H  H304  1  -0.358400  -0.469600  -0.480600  1
  H  H305  1  -0.226000  -0.499100  -0.449800  1
  H  H306  1  -0.005300  -0.311700  -0.332900  1
  H  H307  1  -0.495800  -0.235900  -0.337300  1
  H  H308  1  0.073700  -0.258300  -0.151800  1
  H  H309  1  -0.414500  -0.181100  -0.155900  1
  H  H310  1  0.240400  -0.347000  -0.332600  1
  H  H311  1  -0.743200  -0.197400  -0.338400  1
  H  H312  1  0.319100  -0.295500  -0.150500  1
  H  H313  1  -0.660300  -0.144100  -0.157300  1
  H  H314  1  0.487100  -0.385300  -0.331000  1
  H  H315  1  -0.989900  -0.160400  -0.339500  1
  H  H316  1  0.704100  -0.401600  -0.285800  1
  H  H317  1  0.567200  -0.334400  -0.149700  1
  H  H318  1  -0.910300  -0.108900  -0.157300  1
  H  H319  1  -1.167000  -0.118400  -0.294800  1
  H  H320  1  0.742500  -0.378500  -0.193200  1
  H  H321  1  -0.175700  -0.007600  -0.069500  1
  H  H322  1  -0.036200  -0.038600  -0.045400  1
  H  H323  1  -0.127200  -0.063600  -0.098400  1
  H  H324  1  -0.442300  -0.101600  -0.092400  1
  H  H325  1  -0.507000  -0.102300  -0.036000  1
  H  H326  1  -0.475400  -0.045600  -0.059900  1
  H  H327  1  -0.287600  -0.010700  0.043300  1
  H  H328  1  -0.301900  -0.068400  0.067500  1
  H  H329  1  -0.144600  -0.043800  0.060500  1
  H  H330  1  -0.554100  -0.272300  -0.034900  1
  H  H331  1  -0.544600  -0.209500  -0.045800  1
  H  H332  1  -0.453800  -0.253300  -0.078500  1
  H  H333  1  -0.316800  -0.204100  0.099500  1
  H  H334  1  -0.453200  -0.176200  0.069400  1
  H  H335  1  -0.464600  -0.238000  0.083900  1
  H  H336  1  -0.203800  -0.310200  -0.021400  1
  H  H337  1  -0.166500  -0.296900  0.041000  1
  H  H338  1  -0.316300  -0.327000  0.019100  1
  H  H339  1  0.153700  -0.146800  0.115900  1
  H  H340  1  0.013300  -0.111600  0.100400  1
  H  H341  1  -0.005400  -0.173500  0.113600  1
  H  H342  1  0.242000  -0.236900  0.037900  1
  H  H343  1  0.083600  -0.262300  0.041600  1
  H  H344  1  0.138100  -0.252400  -0.015000  1
  H  H345  1  0.198300  -0.133300  -0.038900  1
  H  H346  1  0.150900  -0.085600  0.002000  1
  H  H347  1  0.286200  -0.123000  0.018200  1
  H  H348  1  -1.126900  -0.092600  -0.204000  1
  H  H349  1  0.275300  0.661600  0.209700  1
  H  H350  1  0.343400  0.603600  0.194700  1
  H  H351  1  0.416000  0.641500  0.244000  1
  H  H352  1  0.392900  0.544100  0.304400  1
  H  H353  1  0.291100  0.508400  0.260400  1
  H  H354  1  0.239100  0.521500  0.318400  1
  H  H355  1  0.150800  0.627900  0.355500  1
  H  H356  1  0.104800  0.673200  0.315500  1
  H  H357  1  0.272000  0.666800  0.336500  1
  H  H358  1  0.024400  0.442900  0.270500  1
  H  H359  1  -0.001900  0.449400  0.208200  1
  H  H360  1  -0.116100  0.415700  0.237000  1
  H  H361  1  -0.221000  0.489900  0.337900  1
  H  H362  1  -0.238300  0.553600  0.331600  1
  H  H363  1  -0.080500  0.529000  0.345200  1
  H  H364  1  -0.390000  0.473100  0.227200  1
  H  H365  1  -0.329300  0.502200  0.179200  1
  H  H366  1  -0.394800  0.537900  0.226500  1
  H  H367  1  -0.305000  0.705600  0.274400  1
  H  H368  1  -0.148300  0.696700  0.304600  1
  H  H369  1  -0.262000  0.647100  0.293700  1
  H  H370  1  -0.362700  0.684800  0.163000  1
  H  H371  1  -0.367300  0.621400  0.172100  1
  H  H372  1  -0.270400  0.643000  0.128600  1
  H  H373  1  0.027200  0.698400  0.164400  1
  H  H374  1  0.033800  0.729600  0.222100  1
  H  H375  1  -0.091200  0.743400  0.177400  1
  H  H376  1  -0.250700  0.554200  0.077400  1
  H  H377  1  0.243900  0.484600  0.106100  1
  H  H378  1  -0.243900  0.515400  -0.106100  1
  H  H379  1  0.250700  0.445800  -0.077400  1
  H  H380  1  -0.501000  0.585600  0.063700  1
  H  H381  1  0.488800  0.445600  0.120400  1
  H  H382  1  -0.488800  0.554400  -0.120400  1
  H  H383  1  0.501000  0.414400  -0.063700  1
  H  H384  1  -0.754500  0.618100  0.050300  1
  H  H385  1  0.733400  0.409800  0.133700  1
  H  H386  1  -0.951400  0.634200  -0.006800  1
  H  H387  1  -0.733400  0.590200  -0.133700  1
  H  H388  1  0.754500  0.381900  -0.050300  1
  H  H389  1  0.942100  0.378100  0.099200  1
  H  H390  1  -0.942100  0.621900  -0.099200  1
  H  H391  1  -0.275300  0.338400  -0.209700  1
  H  H392  1  -0.343400  0.396400  -0.194700  1
  H  H393  1  -0.416000  0.358500  -0.244000  1
  H  H394  1  -0.392900  0.455900  -0.304400  1
  H  H395  1  -0.291100  0.491600  -0.260400  1
  H  H396  1  -0.239100  0.478500  -0.318400  1
  H  H397  1  -0.150800  0.372100  -0.355500  1
  H  H398  1  -0.104800  0.326800  -0.315500  1
  H  H399  1  -0.272000  0.333200  -0.336500  1
  H  H400  1  -0.024400  0.557100  -0.270500  1
  H  H401  1  0.001900  0.550600  -0.208200  1
  H  H402  1  0.116100  0.584300  -0.237000  1
  H  H403  1  0.221000  0.510100  -0.337900  1
  H  H404  1  0.238300  0.446400  -0.331600  1
  H  H405  1  0.080500  0.471000  -0.345200  1
  H  H406  1  0.390000  0.526900  -0.227200  1
  H  H407  1  0.329300  0.497800  -0.179200  1
  H  H408  1  0.394800  0.462100  -0.226500  1
  H  H409  1  0.305000  0.294400  -0.274400  1
  H  H410  1  0.148300  0.303300  -0.304600  1
  H  H411  1  0.262000  0.352900  -0.293700  1
  H  H412  1  0.362700  0.315200  -0.163000  1
  H  H413  1  0.367300  0.378600  -0.172100  1
  H  H414  1  0.270400  0.357000  -0.128600  1
  H  H415  1  -0.027200  0.301600  -0.164400  1
  H  H416  1  -0.033800  0.270400  -0.222100  1
  H  H417  1  0.091200  0.256600  -0.177400  1
  H  H418  1  0.951400  0.365800  0.006800  1
  H  H419  1  0.388500  0.067500  0.215600  1
  H  H420  1  0.550600  0.050400  0.234800  1
  H  H421  1  0.427200  0.052000  0.275300  1
  H  H422  1  0.170000  -0.024300  0.253000  1
  H  H423  1  0.171600  -0.074900  0.209700  1
  H  H424  1  0.150000  -0.014700  0.191200  1
  H  H425  1  0.434700  -0.021500  0.126200  1
  H  H426  1  0.379900  -0.081600  0.134600  1
  H  H427  1  0.546400  -0.064400  0.150500  1
  H  H428  1  0.390100  -0.246300  0.217100  1
  H  H429  1  0.531200  -0.211700  0.207400  1
  H  H430  1  0.373000  -0.192200  0.186200  1
  H  H431  1  0.164800  -0.154000  0.264200  1
  H  H432  1  0.221100  -0.137000  0.324700  1
  H  H433  1  0.194900  -0.199800  0.305200  1
  H  H434  1  0.608400  -0.185800  0.344100  1
  H  H435  1  0.532400  -0.242200  0.321300  1
  H  H436  1  0.456500  -0.203500  0.363900  1
  H  H437  1  0.783000  -0.106400  0.178300  1
  H  H438  1  0.750700  -0.160500  0.206500  1
  H  H439  1  0.912000  -0.135300  0.211600  1
  H  H440  1  0.927300  -0.088700  0.343100  1
  H  H441  1  0.918100  -0.146500  0.309800  1
  H  H442  1  0.791000  -0.128400  0.346000  1
  H  H443  1  0.834400  -0.006600  0.230900  1
  H  H444  1  0.933200  -0.012500  0.285200  1
  H  H445  1  0.770000  0.008800  0.286500  1
  H  H446  1  0.750100  -0.057700  0.424900  1
  H  H447  1  0.255500  0.011200  0.392800  1
  H  H448  1  0.744500  -0.011200  0.607200  1
  H  H449  1  0.249900  0.057700  0.575100  1
  H  H450  1  1.001500  -0.089400  0.439900  1
  H  H451  1  0.010500  0.048400  0.377200  1
  H  H452  1  0.989500  -0.048400  0.622800  1
  H  H453  1  -0.001500  0.089400  0.560100  1
  H  H454  1  1.253800  -0.121100  0.455300  1
  H  H455  1  -0.242300  0.079900  0.362100  1
  H  H456  1  1.450600  -0.136700  0.512900  1
  H  H457  1  1.242300  -0.079900  0.637900  1
  H  H458  1  -0.253800  0.121100  0.544700  1
  H  H459  1  -0.445000  0.116500  0.395400  1
  H  H460  1  1.445000  -0.116500  0.604600  1
  H  H461  1  0.611500  -0.067500  0.784400  1
  H  H462  1  0.449400  -0.050400  0.765200  1
  H  H463  1  0.572800  -0.052000  0.724700  1
  H  H464  1  0.830000  0.024300  0.747000  1
  H  H465  1  0.828400  0.074900  0.790300  1
  H  H466  1  0.850000  0.014700  0.808800  1
  H  H467  1  0.565300  0.021500  0.873800  1
  H  H468  1  0.620100  0.081600  0.865400  1
  H  H469  1  0.453600  0.064400  0.849500  1
  H  H470  1  0.609900  0.246300  0.782900  1
  H  H471  1  0.468800  0.211700  0.792600  1
  H  H472  1  0.627000  0.192200  0.813800  1
  H  H473  1  0.835200  0.154000  0.735800  1
  H  H474  1  0.778900  0.137000  0.675300  1
  H  H475  1  0.805100  0.199800  0.694800  1
  H  H476  1  0.391600  0.185800  0.655900  1
  H  H477  1  0.467600  0.242200  0.678700  1
  H  H478  1  0.543500  0.203500  0.636100  1
  H  H479  1  0.217000  0.106400  0.821700  1
  H  H480  1  0.249300  0.160500  0.793500  1
  H  H481  1  0.088000  0.135300  0.788400  1
  H  H482  1  0.072700  0.088700  0.656900  1
  H  H483  1  0.081900  0.146500  0.690200  1
  H  H484  1  0.209000  0.128400  0.654000  1
  H  H485  1  0.165600  0.006600  0.769100  1
  H  H486  1  0.066800  0.012500  0.714800  1
  H  H487  1  0.230000  -0.008800  0.713500  1
  H  H488  1  -0.450600  0.136700  0.487100  1
  Si  Si489  1  0.265690  0.326750  0.468680  1.0
  Si  Si490  1  0.496300  0.336120  0.514230  1
  Si  Si491  1  0.123300  0.256090  0.495140  1
  Si  Si492  1  0.153500  0.410830  0.467240  1
  Si  Si493  1  0.166720  0.170350  0.019350  1
  Si  Si494  1  0.252500  0.081840  0.023200  1
  Si  Si495  1  0.333400  0.233510  -0.007720  1
  Si  Si496  1  -0.065720  0.170420  -0.026040  1
  Si  Si497  1  -0.265690  -0.326750  -0.468680  1.0
  Si  Si498  1  -0.496300  -0.336120  -0.514230  1
  Si  Si499  1  -0.123300  -0.256090  -0.495140  1
  Si  Si500  1  -0.153500  -0.410830  -0.467240  1
  Si  Si501  1  -0.166720  -0.170350  -0.019350  1
  Si  Si502  1  -0.252500  -0.081840  -0.023200  1
  Si  Si503  1  -0.333400  -0.233510  0.007720  1
  Si  Si504  1  0.065720  -0.170420  0.026040  1
  Si  Si505  1  -0.021760  0.581070  0.222390  1.0
  Si  Si506  1  0.204400  0.597810  0.268710  1
  Si  Si507  1  -0.154000  0.510770  0.254440  1
  Si  Si508  1  -0.150200  0.661120  0.213910  1
  Si  Si509  1  0.021760  0.418930  -0.222390  1
  Si  Si510  1  -0.204400  0.402190  -0.268710  1
  Si  Si511  1  0.154000  0.489230  -0.254440  1
  Si  Si512  1  0.150200  0.338880  -0.213910  1
  Si  Si513  1  0.522400  -0.082730  0.278160  1.0
  Si  Si514  1  0.400200  -0.028420  0.217640  1
  Si  Si515  1  0.414900  -0.169100  0.278200  1
  Si  Si516  1  0.768700  -0.085820  0.268900  1
  Si  Si517  1  0.477600  0.082730  0.721840  1
  Si  Si518  1  0.599800  0.028420  0.782360  1
  Si  Si519  1  0.585100  0.169100  0.721800  1
  Si  Si520  1  0.231300  0.085820  0.731100  1
