# generated using pymatgen
data_SiH31C26S
_symmetry_space_group_name_H-M   'P 1'
_cell_length_a   12.53640000
_cell_length_b   11.09820000
_cell_length_c   15.60300000
_cell_angle_alpha   90.00000000
_cell_angle_beta   95.20300000
_cell_angle_gamma   90.00000000
_symmetry_Int_Tables_number   1
_chemical_formula_structural   SiH31C26S
_chemical_formula_sum   'Si4 H124 C104 S4'
_cell_volume   2161.92366249
_cell_formula_units_Z   4
loop_
 _symmetry_equiv_pos_site_id
 _symmetry_equiv_pos_as_xyz
  1  'x, y, z'
loop_
 _atom_site_type_symbol
 _atom_site_label
 _atom_site_symmetry_multiplicity
 _atom_site_fract_x
 _atom_site_fract_y
 _atom_site_fract_z
 _atom_site_occupancy
  C  C1  1  0.819230  0.765960  0.087710  1
  C  C2  1  0.788230  1.031080  0.109680  1
  C  C3  1  0.767720  0.849720  0.259550  1
  C  C4  1  0.597730  0.857360  0.101320  1
  C  C5  1  0.871690  0.687510  0.059310  1
  C  C6  1  0.769180  1.053100  0.012860  1
  C  C7  1  0.907030  1.059740  0.128960  1
  C  C8  1  0.886010  0.819310  0.288270  1
  C  C9  1  0.740730  0.951730  0.320380  1
  C  C10  1  0.517160  0.937920  0.144960  1
  C  C11  1  0.557000  0.728170  0.110730  1
  C  C12  1  0.935990  0.593280  0.028940  1
  C  C13  1  0.850710  1.147030  -0.009550  1
  C  C14  1  0.924570  1.168280  0.071880  1
  C  C15  1  0.910500  0.878000  0.376930  1
  C  C16  1  0.805300  0.921800  0.404200  1
  C  C17  1  0.433940  0.852400  0.175660  1
  C  C18  1  0.438540  0.742950  0.119090  1
  C  C19  1  0.902340  0.532980  -0.048190  1
  C  C20  1  1.032150  0.562060  0.077470  1
  C  C21  1  0.806040  0.563890  -0.096990  1
  C  C22  1  0.967850  0.437940  -0.077470  1
  C  C23  1  1.097660  0.467020  0.048190  1
  C  C24  1  1.066060  0.622550  0.154410  1
  C  C25  1  0.775670  0.503100  -0.171400  1
  C  C26  1  1.064010  0.406720  -0.028940  1
  C  C27  1  0.933940  0.377450  -0.154410  1
  C  C28  1  1.193960  0.436110  0.096990  1
  C  C29  1  1.159480  0.591460  0.200130  1
  C  C30  1  0.840520  0.408540  -0.200130  1
  C  C31  1  1.128310  0.312490  -0.059310  1
  C  C32  1  1.224330  0.496900  0.171400  1
  C  C33  1  1.208100  0.641900  0.278000  1
  C  C34  1  0.791900  0.358100  -0.278000  1
  C  C35  1  0.697300  0.409500  -0.305700  1
  C  C36  1  1.180770  0.234040  -0.087710  1
  C  C37  1  1.302700  0.590500  0.305700  1
  C  C38  1  1.211770  -0.031080  -0.109680  1
  C  C39  1  1.232280  0.150280  -0.259550  1
  C  C40  1  1.402270  0.142640  -0.101320  1
  C  C41  1  1.230820  -0.053100  -0.012860  1
  C  C42  1  1.092970  -0.059740  -0.128960  1
  C  C43  1  1.113990  0.180690  -0.288270  1
  C  C44  1  1.259270  0.048270  -0.320380  1
  C  C45  1  1.482840  0.062080  -0.144960  1
  C  C46  1  1.443000  0.271830  -0.110730  1
  C  C47  1  1.149290  -0.147030  0.009550  1
  C  C48  1  1.075430  -0.168280  -0.071880  1
  C  C49  1  1.089500  0.122000  -0.376930  1
  C  C50  1  1.194700  0.078200  -0.404200  1
  C  C51  1  1.566060  0.147600  -0.175660  1
  C  C52  1  1.561460  0.257050  -0.119090  1
  C  C53  1  0.680770  1.265960  -0.587710  1
  C  C54  1  0.711770  1.531080  -0.609680  1
  C  C55  1  0.732280  1.349720  -0.759550  1
  C  C56  1  0.902270  1.357360  -0.601320  1
  C  C57  1  0.628310  1.187510  -0.559310  1
  C  C58  1  0.730820  1.553100  -0.512860  1
  C  C59  1  0.592970  1.559740  -0.628960  1
  C  C60  1  0.613990  1.319310  -0.788270  1
  C  C61  1  0.759270  1.451730  -0.820380  1
  C  C62  1  0.982840  1.437920  -0.644960  1
  C  C63  1  0.943000  1.228170  -0.610730  1
  C  C64  1  0.564010  1.093280  -0.528940  1
  C  C65  1  0.649290  1.647030  -0.490450  1
  C  C66  1  0.575430  1.668280  -0.571880  1
  C  C67  1  0.589500  1.378000  -0.876930  1
  C  C68  1  0.694700  1.421800  -0.904200  1
  C  C69  1  1.066060  1.352400  -0.675660  1
  C  C70  1  1.061460  1.242950  -0.619090  1
  C  C71  1  0.597660  1.032980  -0.451810  1
  C  C72  1  0.467850  1.062060  -0.577470  1
  C  C73  1  0.693960  1.063890  -0.403010  1
  C  C74  1  0.532150  0.937940  -0.422530  1
  C  C75  1  0.402340  0.967020  -0.548190  1
  C  C76  1  0.433940  1.122550  -0.654410  1
  C  C77  1  0.724330  1.003100  -0.328600  1
  C  C78  1  0.435990  0.906720  -0.471060  1
  C  C79  1  0.566060  0.877450  -0.345590  1
  C  C80  1  0.306040  0.936110  -0.596990  1
  C  C81  1  0.340520  1.091460  -0.700130  1
  C  C82  1  0.659480  0.908540  -0.299870  1
  C  C83  1  0.371690  0.812490  -0.440690  1
  C  C84  1  0.275670  0.996900  -0.671400  1
  C  C85  1  0.291900  1.141900  -0.778000  1
  C  C86  1  0.708100  0.858100  -0.222000  1
  C  C87  1  0.802700  0.909500  -0.194300  1
  C  C88  1  0.319230  0.734040  -0.412290  1
  C  C89  1  0.197300  1.090500  -0.805700  1
  C  C90  1  0.288230  0.468920  -0.390320  1
  C  C91  1  0.267720  0.650280  -0.240450  1
  C  C92  1  0.097730  0.642640  -0.398680  1
  C  C93  1  0.269180  0.446900  -0.487140  1
  C  C94  1  0.407030  0.440260  -0.371040  1
  C  C95  1  0.386010  0.680690  -0.211730  1
  C  C96  1  0.240730  0.548270  -0.179620  1
  C  C97  1  0.017160  0.562080  -0.355040  1
  C  C98  1  0.057000  0.771830  -0.389270  1
  C  C99  1  0.350710  0.352970  -0.509550  1
  C  C100  1  0.424570  0.331720  -0.428120  1
  C  C101  1  0.410500  0.622000  -0.123070  1
  C  C102  1  0.305300  0.578200  -0.095800  1
  C  C103  1  -0.066060  0.647600  -0.324340  1
  C  C104  1  -0.061460  0.757050  -0.380910  1
  H  H105  1  0.746600  1.092900  0.139300  1
  H  H106  1  0.723800  0.778200  0.273200  1
  H  H107  1  0.590500  0.877200  0.038500  1
  H  H108  1  0.779000  0.977500  -0.019200  1
  H  H109  1  0.695400  1.082900  -0.002300  1
  H  H110  1  0.924000  1.079900  0.190500  1
  H  H111  1  0.951900  0.990800  0.114100  1
  H  H112  1  0.896300  0.731000  0.292200  1
  H  H113  1  0.933700  0.852100  0.246700  1
  H  H114  1  0.762000  1.030900  0.298200  1
  H  H115  1  0.663100  0.953100  0.327800  1
  H  H116  1  0.553900  0.982400  0.194100  1
  H  H117  1  0.483100  0.996800  0.103400  1
  H  H118  1  0.569400  0.679300  0.059500  1
  H  H119  1  0.593100  0.689000  0.162500  1
  H  H120  1  0.892000  1.117300  -0.056400  1
  H  H121  1  0.814200  1.222800  -0.028600  1
  H  H122  1  0.905700  1.244000  0.100400  1
  H  H123  1  1.000200  1.172900  0.058600  1
  H  H124  1  0.943200  0.818700  0.418800  1
  H  H125  1  0.960800  0.946200  0.373300  1
  H  H126  1  0.815400  0.994100  0.441300  1
  H  H127  1  0.769700  0.858300  0.435800  1
  H  H128  1  0.451500  0.830900  0.236900  1
  H  H129  1  0.361800  0.889300  0.169000  1
  H  H130  1  0.398600  0.756400  0.062200  1
  H  H131  1  0.408900  0.671300  0.146300  1
  H  H132  1  0.762400  0.626800  -0.078200  1
  H  H133  1  1.023400  0.685500  0.174500  1
  H  H134  1  0.976600  0.314500  -0.174500  1
  H  H135  1  1.237600  0.373200  0.078200  1
  H  H136  1  1.177000  0.705800  0.307700  1
  H  H137  1  0.823000  0.294200  -0.307700  1
  H  H138  1  0.654600  0.383400  -0.355700  1
  H  H139  1  1.345400  0.616600  0.355700  1
  H  H140  1  1.253400  -0.092900  -0.139300  1
  H  H141  1  1.276200  0.221800  -0.273200  1
  H  H142  1  1.409500  0.122800  -0.038500  1
  H  H143  1  1.221000  0.022500  0.019200  1
  H  H144  1  1.304600  -0.082900  0.002300  1
  H  H145  1  1.076000  -0.079900  -0.190500  1
  H  H146  1  1.048100  0.009200  -0.114100  1
  H  H147  1  1.103700  0.269000  -0.292200  1
  H  H148  1  1.066300  0.147900  -0.246700  1
  H  H149  1  1.238000  -0.030900  -0.298200  1
  H  H150  1  1.336900  0.046900  -0.327800  1
  H  H151  1  1.446100  0.017600  -0.194100  1
  H  H152  1  1.516900  0.003200  -0.103400  1
  H  H153  1  1.430600  0.320700  -0.059500  1
  H  H154  1  1.406900  0.311000  -0.162500  1
  H  H155  1  1.108000  -0.117300  0.056400  1
  H  H156  1  1.185800  -0.222800  0.028600  1
  H  H157  1  1.094300  -0.244000  -0.100400  1
  H  H158  1  0.999800  -0.172900  -0.058600  1
  H  H159  1  1.056800  0.181300  -0.418800  1
  H  H160  1  1.039200  0.053800  -0.373300  1
  H  H161  1  1.184600  0.005900  -0.441300  1
  H  H162  1  1.230300  0.141700  -0.435800  1
  H  H163  1  1.548500  0.169100  -0.236900  1
  H  H164  1  1.638200  0.110700  -0.169000  1
  H  H165  1  1.601400  0.243600  -0.062200  1
  H  H166  1  1.591100  0.328700  -0.146300  1
  H  H167  1  0.753400  1.592900  -0.639300  1
  H  H168  1  0.776200  1.278200  -0.773200  1
  H  H169  1  0.909500  1.377200  -0.538500  1
  H  H170  1  0.721000  1.477500  -0.480800  1
  H  H171  1  0.804600  1.582900  -0.497700  1
  H  H172  1  0.576000  1.579900  -0.690500  1
  H  H173  1  0.548100  1.490800  -0.614100  1
  H  H174  1  0.603700  1.231000  -0.792200  1
  H  H175  1  0.566300  1.352100  -0.746700  1
  H  H176  1  0.738000  1.530900  -0.798200  1
  H  H177  1  0.836900  1.453100  -0.827800  1
  H  H178  1  0.946100  1.482400  -0.694100  1
  H  H179  1  1.016900  1.496800  -0.603400  1
  H  H180  1  0.930600  1.179300  -0.559500  1
  H  H181  1  0.906900  1.189000  -0.662500  1
  H  H182  1  0.608000  1.617300  -0.443600  1
  H  H183  1  0.685800  1.722800  -0.471400  1
  H  H184  1  0.594300  1.744000  -0.600400  1
  H  H185  1  0.499800  1.672900  -0.558600  1
  H  H186  1  0.556800  1.318700  -0.918800  1
  H  H187  1  0.539200  1.446200  -0.873300  1
  H  H188  1  0.684600  1.494100  -0.941300  1
  H  H189  1  0.730300  1.358300  -0.935800  1
  H  H190  1  1.048500  1.330900  -0.736900  1
  H  H191  1  1.138200  1.389300  -0.669000  1
  H  H192  1  1.101400  1.256400  -0.562200  1
  H  H193  1  1.091100  1.171300  -0.646300  1
  H  H194  1  0.737600  1.126800  -0.421800  1
  H  H195  1  0.476600  1.185500  -0.674500  1
  H  H196  1  0.523400  0.814500  -0.325500  1
  H  H197  1  0.262400  0.873200  -0.578200  1
  H  H198  1  0.323000  1.205800  -0.807700  1
  H  H199  1  0.677000  0.794200  -0.192300  1
  H  H200  1  0.845400  0.883400  -0.144300  1
  H  H201  1  0.154600  1.116600  -0.855700  1
  H  H202  1  0.246600  0.407100  -0.360700  1
  H  H203  1  0.223800  0.721800  -0.226800  1
  H  H204  1  0.090500  0.622800  -0.461500  1
  H  H205  1  0.279000  0.522500  -0.519200  1
  H  H206  1  0.195400  0.417100  -0.502300  1
  H  H207  1  0.424000  0.420100  -0.309500  1
  H  H208  1  0.451900  0.509200  -0.385900  1
  H  H209  1  0.396300  0.769000  -0.207800  1
  H  H210  1  0.433700  0.647900  -0.253300  1
  H  H211  1  0.262000  0.469100  -0.201800  1
  H  H212  1  0.163100  0.546900  -0.172200  1
  H  H213  1  0.053900  0.517600  -0.305900  1
  H  H214  1  -0.016900  0.503200  -0.396600  1
  H  H215  1  0.069400  0.820700  -0.440500  1
  H  H216  1  0.093100  0.811000  -0.337500  1
  H  H217  1  0.392000  0.382700  -0.556400  1
  H  H218  1  0.314200  0.277200  -0.528600  1
  H  H219  1  0.405700  0.256000  -0.399600  1
  H  H220  1  0.500200  0.327100  -0.441400  1
  H  H221  1  0.443200  0.681300  -0.081200  1
  H  H222  1  0.460800  0.553800  -0.126700  1
  H  H223  1  0.315400  0.505900  -0.058700  1
  H  H224  1  0.269700  0.641700  -0.064200  1
  H  H225  1  -0.048500  0.669100  -0.263100  1
  H  H226  1  -0.138200  0.610700  -0.331000  1
  H  H227  1  -0.101400  0.743600  -0.437800  1
  H  H228  1  -0.091100  0.828700  -0.353700  1
  S  S229  1  0.661230  0.527200  -0.241550  1
  S  S230  1  1.338770  0.472800  0.241550  1
  S  S231  1  0.838770  1.027200  -0.258450  1
  S  S232  1  0.161230  0.972800  -0.741550  1
  Si  Si233  1  0.741340  0.879060  0.141450  1.0
  Si  Si234  1  1.258660  0.120940  -0.141450  1
  Si  Si235  1  0.758660  1.379060  -0.641450  1.0
  Si  Si236  1  0.241340  0.620940  -0.358550  1
