# generated using pymatgen
data_SiH26C20N
_symmetry_space_group_name_H-M   'P 1'
_cell_length_a   8.39920000
_cell_length_b   10.52600000
_cell_length_c   11.74600000
_cell_angle_alpha   68.85000000
_cell_angle_beta   80.94000000
_cell_angle_gamma   76.25000000
_symmetry_Int_Tables_number   1
_chemical_formula_structural   SiH26C20N
_chemical_formula_sum   'Si2 H52 C40 N2'
_cell_volume   937.80422721
_cell_formula_units_Z   2
loop_
 _symmetry_equiv_pos_site_id
 _symmetry_equiv_pos_as_xyz
  1  'x, y, z'
loop_
 _atom_site_type_symbol
 _atom_site_label
 _atom_site_symmetry_multiplicity
 _atom_site_fract_x
 _atom_site_fract_y
 _atom_site_fract_z
 _atom_site_occupancy
  C  C1  1  0.450600  0.267500  0.298400  1
  C  C2  1  0.640700  0.129600  0.121700  1
  C  C3  1  0.411700  -0.018400  0.329100  1
  C  C4  1  0.253000  0.239000  0.116000  1
  C  C5  1  0.455900  0.338900  0.357200  1
  C  C6  1  0.675100  0.270800  0.030700  1
  C  C7  1  0.784100  0.049200  0.202100  1
  C  C8  1  0.408800  -0.126000  0.270700  1
  C  C9  1  0.265900  -0.009800  0.422300  1
  C  C10  1  0.272000  0.194800  0.002800  1
  C  C11  1  0.247800  0.390200  0.051900  1
  C  C12  1  0.472400  0.420600  0.428400  1
  C  C13  1  0.363500  0.441000  0.525900  1
  C  C14  1  0.611000  0.482900  0.402200  1
  C  C15  1  0.389000  0.517100  0.597800  1
  C  C16  1  0.636500  0.559000  0.474100  1
  C  C17  1  0.743100  0.486200  0.310000  1
  C  C18  1  0.527600  0.579400  0.571600  1
  C  C19  1  0.256900  0.513800  0.690000  1
  C  C20  1  0.132700  0.323400  0.534300  1
  C  C21  1  0.153800  0.439400  0.675500  1
  C  C22  1  0.846200  0.560600  0.324500  1
  C  C23  1  0.544100  0.661100  0.642800  1
  C  C24  1  -0.009500  0.292500  0.593100  1
  C  C25  1  0.004500  0.402900  0.736200  1
  C  C26  1  0.867300  0.676600  0.465700  1
  C  C27  1  0.995500  0.597100  0.263800  1
  C  C28  1  0.549400  0.732500  0.701600  1
  C  C29  1  -0.075300  0.332000  0.696500  1
  C  C30  1  1.009500  0.707500  0.406900  1
  C  C31  1  1.075300  0.668000  0.303500  1
  C  C32  1  0.359300  0.870400  0.878300  1
  C  C33  1  0.588300  1.018400  0.670900  1
  C  C34  1  0.747000  0.761000  0.884000  1
  C  C35  1  0.324900  0.729200  0.969300  1
  C  C36  1  0.215900  0.950800  0.797900  1
  C  C37  1  0.591200  1.126000  0.729300  1
  C  C38  1  0.734100  1.009800  0.577700  1
  C  C39  1  0.728000  0.805200  0.997200  1
  C  C40  1  0.752200  0.609800  0.948100  1
  H  H41  1  0.630600  0.073800  0.073000  1
  H  H42  1  0.509400  -0.054200  0.375700  1
  H  H43  1  0.149700  0.221100  0.165300  1
  H  H44  1  0.705000  0.321700  0.074600  1
  H  H45  1  0.578100  0.323200  -0.010600  1
  H  H46  1  0.763500  0.255000  -0.028300  1
  H  H47  1  0.877300  0.018800  0.152800  1
  H  H48  1  0.751900  -0.030000  0.265800  1
  H  H49  1  0.812800  0.108600  0.238100  1
  H  H50  1  0.404100  -0.214100  0.333700  1
  H  H51  1  0.506500  -0.134700  0.217100  1
  H  H52  1  0.313900  -0.096800  0.224700  1
  H  H53  1  0.167100  0.032300  0.380700  1
  H  H54  1  0.280900  0.045300  0.468000  1
  H  H55  1  0.257700  -0.101600  0.477100  1
  H  H56  1  0.186800  0.250600  -0.049900  1
  H  H57  1  0.265100  0.098700  0.027800  1
  H  H58  1  0.377500  0.207500  -0.040400  1
  H  H59  1  0.344700  0.403300  -0.003000  1
  H  H60  1  0.243400  0.434500  0.111200  1
  H  H61  1  0.152100  0.430400  0.006300  1
  H  H62  1  0.756800  0.444900  0.250300  1
  H  H63  1  0.243200  0.555100  0.749700  1
  H  H64  1  0.174800  0.297300  0.466100  1
  H  H65  1  -0.066100  0.244300  0.565900  1
  H  H66  1  -0.039600  0.428100  0.804500  1
  H  H67  1  0.825200  0.702700  0.533900  1
  H  H68  1  1.039600  0.571900  0.195500  1
  H  H69  1  -0.174200  0.308900  0.737300  1
  H  H70  1  1.066100  0.755700  0.434100  1
  H  H71  1  1.174200  0.691100  0.262700  1
  H  H72  1  0.369400  0.926200  0.927000  1
  H  H73  1  0.490600  1.054200  0.624300  1
  H  H74  1  0.850300  0.778900  0.834700  1
  H  H75  1  0.295000  0.678300  0.925400  1
  H  H76  1  0.421900  0.676800  1.010600  1
  H  H77  1  0.236500  0.745000  1.028300  1
  H  H78  1  0.122700  0.981200  0.847200  1
  H  H79  1  0.248100  1.030000  0.734200  1
  H  H80  1  0.187200  0.891400  0.761900  1
  H  H81  1  0.595900  1.214100  0.666300  1
  H  H82  1  0.493500  1.134700  0.782900  1
  H  H83  1  0.686100  1.096800  0.775300  1
  H  H84  1  0.832900  0.967700  0.619300  1
  H  H85  1  0.719100  0.954700  0.532000  1
  H  H86  1  0.742300  1.101600  0.522900  1
  H  H87  1  0.813200  0.749400  1.049900  1
  H  H88  1  0.734900  0.901300  0.972200  1
  H  H89  1  0.622500  0.792500  1.040400  1
  H  H90  1  0.655300  0.596700  1.003000  1
  H  H91  1  0.756600  0.565500  0.888800  1
  H  H92  1  0.847900  0.569600  0.993700  1
  N  N93  1  0.217500  0.394300  0.574600  1
  N  N94  1  0.782500  0.605700  0.425400  1
  Si  Si95  1  0.441130  0.153460  0.213760  1.0
  Si  Si96  1  0.558870  0.846540  0.786240  1
