# generated using pymatgen
data_SiH20C19SF
_symmetry_space_group_name_H-M   'P 1'
_cell_length_a   15.54900000
_cell_length_b   6.85610000
_cell_length_c   15.42450000
_cell_angle_alpha   90.00000000
_cell_angle_beta   98.12500000
_cell_angle_gamma   90.00000000
_symmetry_Int_Tables_number   1
_chemical_formula_structural   SiH20C19SF
_chemical_formula_sum   'Si4 H80 C76 S4 F4'
_cell_volume   1627.83080547
_cell_formula_units_Z   4
loop_
 _symmetry_equiv_pos_site_id
 _symmetry_equiv_pos_as_xyz
  1  'x, y, z'
loop_
 _atom_site_type_symbol
 _atom_site_label
 _atom_site_symmetry_multiplicity
 _atom_site_fract_x
 _atom_site_fract_y
 _atom_site_fract_z
 _atom_site_occupancy
  C  C1  1  0.755610  0.461200  0.598060  1
  C  C2  1  0.865580  0.474800  0.775770  1
  C  C3  1  0.945320  0.573000  0.609240  1
  C  C4  1  0.893280  0.152800  0.647540  1
  C  C5  1  0.680800  0.479300  0.564740  1
  C  C6  1  0.805020  0.342500  0.820300  1
  C  C7  1  0.846540  0.690400  0.792590  1
  C  C8  1  0.590400  0.492910  0.531140  1
  C  C9  1  0.809950  0.388500  0.917460  1
  C  C10  1  0.849980  0.734500  0.890230  1
  C  C11  1  0.562040  0.496240  0.439850  1
  C  C12  1  0.529770  0.497690  0.591750  1
  C  C13  1  0.789170  0.602000  0.932320  1
  C  C14  1  0.621980  0.494300  0.378190  1
  C  C15  1  0.470230  0.502310  0.408250  1
  C  C16  1  0.437960  0.503760  0.560150  1
  C  C17  1  0.558060  0.496410  0.683460  1
  C  C18  1  0.592610  0.498020  0.290350  1
  C  C19  1  0.409600  0.507090  0.468860  1
  C  C20  1  0.441940  0.503590  0.316540  1
  C  C21  1  0.378020  0.505700  0.621810  1
  C  C22  1  0.498980  0.498400  0.741010  1
  C  C23  1  0.501020  0.501600  0.258990  1
  C  C24  1  0.319200  0.520700  0.435260  1
  C  C25  1  0.407390  0.501980  0.709650  1
  C  C26  1  0.515300  0.493800  0.835300  1
  C  C27  1  0.484700  0.506200  0.164700  1
  C  C28  1  0.560600  0.503600  0.130500  1
  C  C29  1  0.244390  0.538800  0.401940  1
  C  C30  1  0.439400  0.496400  0.869500  1
  C  C31  1  0.134420  0.525200  0.224230  1
  C  C32  1  0.054680  0.427000  0.390760  1
  C  C33  1  0.106720  0.847200  0.352460  1
  C  C34  1  0.194980  0.657500  0.179700  1
  C  C35  1  0.153460  0.309600  0.207410  1
  C  C36  1  0.190050  0.611500  0.082540  1
  C  C37  1  0.150020  0.265500  0.109770  1
  C  C38  1  0.210830  0.398000  0.067680  1
  C  C39  1  0.244390  0.961200  -0.098060  1
  C  C40  1  0.134420  0.974800  -0.275770  1
  C  C41  1  0.054680  1.073000  -0.109240  1
  C  C42  1  0.106720  0.652800  -0.147540  1
  C  C43  1  0.319200  0.979300  -0.064740  1
  C  C44  1  0.194980  0.842500  -0.320300  1
  C  C45  1  0.153460  1.190400  -0.292590  1
  C  C46  1  0.409600  0.992910  -0.031140  1
  C  C47  1  0.190050  0.888500  -0.417460  1
  C  C48  1  0.150020  1.234500  -0.390230  1
  C  C49  1  0.437960  0.996240  0.060150  1
  C  C50  1  0.470230  0.997690  -0.091750  1
  C  C51  1  0.210830  1.102000  -0.432320  1
  C  C52  1  0.378020  0.994300  0.121810  1
  C  C53  1  0.529770  1.002310  0.091750  1
  C  C54  1  0.562040  1.003760  -0.060150  1
  C  C55  1  0.441940  0.996410  -0.183460  1
  C  C56  1  0.407390  0.998020  0.209650  1
  C  C57  1  0.590400  1.007090  0.031140  1
  C  C58  1  0.558060  1.003590  0.183460  1
  C  C59  1  0.621980  1.005700  -0.121810  1
  C  C60  1  0.501020  0.998400  -0.241010  1
  C  C61  1  0.498980  1.001600  0.241010  1
  C  C62  1  0.680800  1.020700  0.064740  1
  C  C63  1  0.592610  1.001980  -0.209650  1
  C  C64  1  0.484700  0.993800  -0.335300  1
  C  C65  1  0.515300  1.006200  0.335300  1
  C  C66  1  0.439400  1.003600  0.369500  1
  C  C67  1  0.755610  1.038800  0.098060  1
  C  C68  1  0.560600  0.996400  -0.369500  1
  C  C69  1  0.865580  1.025200  0.275770  1
  C  C70  1  0.945320  0.927000  0.109240  1
  C  C71  1  0.893280  1.347200  0.147540  1
  C  C72  1  0.805020  1.157500  0.320300  1
  C  C73  1  0.846540  0.809600  0.292590  1
  C  C74  1  0.809950  1.111500  0.417460  1
  C  C75  1  0.849980  0.765500  0.390230  1
  C  C76  1  0.789170  0.898000  0.432320  1
  F  F77  1  0.572870  0.508800  0.046000  1
  F  F78  1  0.427130  0.491200  0.954000  1
  F  F79  1  0.427130  1.008800  0.454000  1
  F  F80  1  0.572870  0.991200  -0.454000  1
  H  H81  1  0.925900  0.449000  0.805600  1
  H  H82  1  0.944000  0.540900  0.547100  1
  H  H83  1  1.003800  0.549400  0.640500  1
  H  H84  1  0.930100  0.710600  0.615000  1
  H  H85  1  0.842300  0.072900  0.653900  1
  H  H86  1  0.940900  0.118800  0.693700  1
  H  H87  1  0.911200  0.128500  0.590100  1
  H  H88  1  0.744500  0.360000  0.791400  1
  H  H89  1  0.821400  0.204500  0.813100  1
  H  H90  1  0.889600  0.772900  0.768300  1
  H  H91  1  0.788200  0.724100  0.761800  1
  H  H92  1  0.768300  0.304900  0.943300  1
  H  H93  1  0.869000  0.358600  0.947500  1
  H  H94  1  0.910200  0.716500  0.920000  1
  H  H95  1  0.833400  0.872200  0.897800  1
  H  H96  1  0.728300  0.629400  0.906900  1
  H  H97  1  0.795300  0.628700  0.996000  1
  H  H98  1  0.682600  0.490300  0.398100  1
  H  H99  1  0.618400  0.494200  0.704800  1
  H  H100  1  0.381600  0.505800  0.295200  1
  H  H101  1  0.317400  0.509700  0.601900  1
  H  H102  1  0.571400  0.489400  0.869000  1
  H  H103  1  0.428600  0.510600  0.131000  1
  H  H104  1  0.074100  0.551000  0.194400  1
  H  H105  1  0.056000  0.459100  0.452900  1
  H  H106  1  -0.003800  0.450600  0.359500  1
  H  H107  1  0.069900  0.289400  0.385000  1
  H  H108  1  0.157700  0.927100  0.346100  1
  H  H109  1  0.059100  0.881200  0.306300  1
  H  H110  1  0.088800  0.871500  0.409900  1
  H  H111  1  0.255500  0.640000  0.208600  1
  H  H112  1  0.178600  0.795500  0.186900  1
  H  H113  1  0.110400  0.227100  0.231700  1
  H  H114  1  0.211800  0.275900  0.238200  1
  H  H115  1  0.231700  0.695100  0.056700  1
  H  H116  1  0.131000  0.641400  0.052500  1
  H  H117  1  0.089800  0.283500  0.080000  1
  H  H118  1  0.166600  0.127800  0.102200  1
  H  H119  1  0.271700  0.370600  0.093100  1
  H  H120  1  0.204700  0.371300  0.004000  1
  H  H121  1  0.074100  0.949000  -0.305600  1
  H  H122  1  0.056000  1.040900  -0.047100  1
  H  H123  1  -0.003800  1.049400  -0.140500  1
  H  H124  1  0.069900  1.210600  -0.115000  1
  H  H125  1  0.157700  0.572900  -0.153900  1
  H  H126  1  0.059100  0.618800  -0.193700  1
  H  H127  1  0.088800  0.628500  -0.090100  1
  H  H128  1  0.255500  0.860000  -0.291400  1
  H  H129  1  0.178600  0.704500  -0.313100  1
  H  H130  1  0.110400  1.272900  -0.268300  1
  H  H131  1  0.211800  1.224100  -0.261800  1
  H  H132  1  0.231700  0.804900  -0.443300  1
  H  H133  1  0.131000  0.858600  -0.447500  1
  H  H134  1  0.089800  1.216500  -0.420000  1
  H  H135  1  0.166600  1.372200  -0.397800  1
  H  H136  1  0.271700  1.129400  -0.406900  1
  H  H137  1  0.204700  1.128700  -0.496000  1
  H  H138  1  0.317400  0.990300  0.101900  1
  H  H139  1  0.381600  0.994200  -0.204800  1
  H  H140  1  0.618400  1.005800  0.204800  1
  H  H141  1  0.682600  1.009700  -0.101900  1
  H  H142  1  0.428600  0.989400  -0.369000  1
  H  H143  1  0.571400  1.010600  0.369000  1
  H  H144  1  0.925900  1.051000  0.305600  1
  H  H145  1  0.944000  0.959100  0.047100  1
  H  H146  1  1.003800  0.950600  0.140500  1
  H  H147  1  0.930100  0.789400  0.115000  1
  H  H148  1  0.842300  1.427100  0.153900  1
  H  H149  1  0.940900  1.381200  0.193700  1
  H  H150  1  0.911200  1.371500  0.090100  1
  H  H151  1  0.744500  1.140000  0.291400  1
  H  H152  1  0.821400  1.295500  0.313100  1
  H  H153  1  0.889600  0.727100  0.268300  1
  H  H154  1  0.788200  0.775900  0.261800  1
  H  H155  1  0.768300  1.195100  0.443300  1
  H  H156  1  0.869000  1.141400  0.447500  1
  H  H157  1  0.910200  0.783500  0.420000  1
  H  H158  1  0.833400  0.627800  0.397800  1
  H  H159  1  0.728300  0.870600  0.406900  1
  H  H160  1  0.795300  0.871300  0.496000  1
  S  S161  1  0.655890  0.499400  0.205180  1
  S  S162  1  0.344110  0.500600  0.794820  1
  S  S163  1  0.344110  0.999400  0.294820  1
  S  S164  1  0.655890  1.000600  -0.294820  1
  Si  Si165  1  0.865420  0.416680  0.656950  1.0
  Si  Si166  1  0.134580  0.583320  0.343050  1
  Si  Si167  1  0.134580  0.916680  -0.156950  1.0
  Si  Si168  1  0.865420  1.083320  0.156950  1
