# generated using pymatgen
data_SiH37C33N
_symmetry_space_group_name_H-M   'P 1'
_cell_length_a   16.64090000
_cell_length_b   17.58270000
_cell_length_c   18.89030000
_cell_angle_alpha   90.00000000
_cell_angle_beta   90.00000000
_cell_angle_gamma   90.00000000
_symmetry_Int_Tables_number   1
_chemical_formula_structural   SiH37C33N
_chemical_formula_sum   'Si8 H296 C264 N8'
_cell_volume   5527.14975899
_cell_formula_units_Z   8
loop_
 _symmetry_equiv_pos_site_id
 _symmetry_equiv_pos_as_xyz
  1  'x, y, z'
loop_
 _atom_site_type_symbol
 _atom_site_label
 _atom_site_symmetry_multiplicity
 _atom_site_fract_x
 _atom_site_fract_y
 _atom_site_fract_z
 _atom_site_occupancy
  C  C1  1  0.766000  0.250000  0.622700  1
  C  C2  1  0.894400  0.147600  0.654400  1
  C  C3  1  0.894400  0.352400  0.654400  1
  C  C4  1  0.809600  0.250000  0.772600  1
  C  C5  1  0.713600  0.250000  0.577700  1
  C  C6  1  0.964400  0.122600  0.698200  1
  C  C7  1  0.918500  0.147800  0.575900  1
  C  C8  1  0.964400  0.377400  0.698200  1
  C  C9  1  0.918500  0.352200  0.575900  1
  C  C10  1  0.759900  0.180200  0.789100  1
  C  C11  1  0.759900  0.319800  0.789100  1
  C  C12  1  0.656300  0.250000  0.522100  1
  C  C13  1  0.997600  0.045900  0.675700  1
  C  C14  1  0.944000  0.068900  0.552100  1
  C  C15  1  0.997600  0.454100  0.675700  1
  C  C16  1  0.944000  0.431100  0.552100  1
  C  C17  1  0.722500  0.180800  0.862400  1
  C  C18  1  0.722500  0.319200  0.862400  1
  C  C19  1  0.628400  0.179600  0.494500  1
  C  C20  1  0.628400  0.320400  0.494500  1
  C  C21  1  1.017200  0.046000  0.598200  1
  C  C22  1  1.017200  0.454000  0.598200  1
  C  C23  1  0.669700  0.250000  0.871800  1
  C  C24  1  0.651700  0.111000  0.523600  1
  C  C25  1  0.575100  0.180100  0.434400  1
  C  C26  1  0.651700  0.389000  0.523600  1
  C  C27  1  0.575100  0.319900  0.434400  1
  C  C28  1  0.627100  0.042000  0.496400  1
  C  C29  1  0.549400  0.110400  0.407300  1
  C  C30  1  0.551500  0.250000  0.404900  1
  C  C31  1  0.627100  0.458000  0.496400  1
  C  C32  1  0.549400  0.389600  0.407300  1
  C  C33  1  0.650800  -0.030300  0.525400  1
  C  C34  1  0.572500  0.041500  0.436500  1
  C  C35  1  0.502200  0.250000  0.342000  1
  C  C36  1  0.650800  0.530300  0.525400  1
  C  C37  1  0.572500  0.458500  0.436500  1
  C  C38  1  0.626300  -0.096700  0.497100  1
  C  C39  1  0.547200  -0.029200  0.408800  1
  C  C40  1  0.463000  0.250000  0.287800  1
  C  C41  1  0.626300  0.596700  0.497100  1
  C  C42  1  0.547200  0.529200  0.408800  1
  C  C43  1  0.572100  -0.098400  0.437500  1
  C  C44  1  0.637300  -0.175600  0.526500  1
  C  C45  1  0.572100  0.598400  0.437500  1
  C  C46  1  0.637300  0.675600  0.526500  1
  C  C47  1  0.529200  -0.174800  0.407000  1
  C  C48  1  0.343700  0.157000  0.211300  1
  C  C49  1  0.343700  0.343000  0.211300  1
  C  C50  1  0.473700  0.250000  0.131000  1
  C  C51  1  0.529200  0.674800  0.407000  1
  C  C52  1  0.289200  0.148900  0.275800  1
  C  C53  1  0.298800  0.136900  0.143800  1
  C  C54  1  0.289200  0.351100  0.275800  1
  C  C55  1  0.298800  0.363100  0.143800  1
  C  C56  1  0.527200  0.179800  0.130200  1
  C  C57  1  0.527200  0.320200  0.130200  1
  C  C58  1  0.253400  0.069100  0.281700  1
  C  C59  1  0.263400  0.056100  0.150200  1
  C  C60  1  0.253400  0.430900  0.281700  1
  C  C61  1  0.263400  0.443900  0.150200  1
  C  C62  1  0.590100  0.180100  0.071100  1
  C  C63  1  0.590100  0.319900  0.071100  1
  C  C64  1  0.209700  0.049600  0.215200  1
  C  C65  1  0.209700  0.450400  0.215200  1
  C  C66  1  0.639800  0.250000  0.073900  1
  C  C67  1  0.734000  -0.250000  1.122700  1
  C  C68  1  0.605600  -0.147600  1.154400  1
  C  C69  1  0.605600  -0.352400  1.154400  1
  C  C70  1  0.690400  -0.250000  1.272600  1
  C  C71  1  0.786400  -0.250000  1.077700  1
  C  C72  1  0.535600  -0.122600  1.198200  1
  C  C73  1  0.581500  -0.147800  1.075900  1
  C  C74  1  0.535600  -0.377400  1.198200  1
  C  C75  1  0.581500  -0.352200  1.075900  1
  C  C76  1  0.740100  -0.180200  1.289100  1
  C  C77  1  0.740100  -0.319800  1.289100  1
  C  C78  1  0.843700  -0.250000  1.022100  1
  C  C79  1  0.502400  -0.045900  1.175700  1
  C  C80  1  0.556000  -0.068900  1.052100  1
  C  C81  1  0.502400  -0.454100  1.175700  1
  C  C82  1  0.556000  -0.431100  1.052100  1
  C  C83  1  0.777500  -0.180800  1.362400  1
  C  C84  1  0.777500  -0.319200  1.362400  1
  C  C85  1  0.871600  -0.179600  0.994500  1
  C  C86  1  0.871600  -0.320400  0.994500  1
  C  C87  1  0.482800  -0.046000  1.098200  1
  C  C88  1  0.482800  -0.454000  1.098200  1
  C  C89  1  0.830300  -0.250000  1.371800  1
  C  C90  1  0.848300  -0.111000  1.023600  1
  C  C91  1  0.924900  -0.180100  0.934400  1
  C  C92  1  0.848300  -0.389000  1.023600  1
  C  C93  1  0.924900  -0.319900  0.934400  1
  C  C94  1  0.872900  -0.042000  0.996400  1
  C  C95  1  0.950600  -0.110400  0.907300  1
  C  C96  1  0.948500  -0.250000  0.904900  1
  C  C97  1  0.872900  -0.458000  0.996400  1
  C  C98  1  0.950600  -0.389600  0.907300  1
  C  C99  1  0.849200  0.030300  1.025400  1
  C  C100  1  0.927500  -0.041500  0.936500  1
  C  C101  1  0.997800  -0.250000  0.842000  1
  C  C102  1  0.849200  -0.530300  1.025400  1
  C  C103  1  0.927500  -0.458500  0.936500  1
  C  C104  1  0.873700  0.096700  0.997100  1
  C  C105  1  0.952800  0.029200  0.908800  1
  C  C106  1  1.037000  -0.250000  0.787800  1
  C  C107  1  0.873700  -0.596700  0.997100  1
  C  C108  1  0.952800  -0.529200  0.908800  1
  C  C109  1  0.927900  0.098400  0.937500  1
  C  C110  1  0.862700  0.175600  1.026500  1
  C  C111  1  0.927900  -0.598400  0.937500  1
  C  C112  1  0.862700  -0.675600  1.026500  1
  C  C113  1  0.970800  0.174800  0.907000  1
  C  C114  1  1.156300  -0.157000  0.711300  1
  C  C115  1  1.156300  -0.343000  0.711300  1
  C  C116  1  1.026300  -0.250000  0.631000  1
  C  C117  1  0.970800  -0.674800  0.907000  1
  C  C118  1  1.210800  -0.148900  0.775800  1
  C  C119  1  1.201200  -0.136900  0.643800  1
  C  C120  1  1.210800  -0.351100  0.775800  1
  C  C121  1  1.201200  -0.363100  0.643800  1
  C  C122  1  0.972800  -0.179800  0.630200  1
  C  C123  1  0.972800  -0.320200  0.630200  1
  C  C124  1  1.246600  -0.069100  0.781700  1
  C  C125  1  1.236600  -0.056100  0.650200  1
  C  C126  1  1.246600  -0.430900  0.781700  1
  C  C127  1  1.236600  -0.443900  0.650200  1
  C  C128  1  0.909900  -0.180100  0.571100  1
  C  C129  1  0.909900  -0.319900  0.571100  1
  C  C130  1  1.290300  -0.049600  0.715200  1
  C  C131  1  1.290300  -0.450400  0.715200  1
  C  C132  1  0.860200  -0.250000  0.573900  1
  C  C133  1  1.266000  0.250000  -0.122700  1
  C  C134  1  1.394400  0.352400  -0.154400  1
  C  C135  1  1.394400  0.147600  -0.154400  1
  C  C136  1  1.309600  0.250000  -0.272600  1
  C  C137  1  1.213600  0.250000  -0.077700  1
  C  C138  1  1.464400  0.377400  -0.198200  1
  C  C139  1  1.418500  0.352200  -0.075900  1
  C  C140  1  1.464400  0.122600  -0.198200  1
  C  C141  1  1.418500  0.147800  -0.075900  1
  C  C142  1  1.259900  0.319800  -0.289100  1
  C  C143  1  1.259900  0.180200  -0.289100  1
  C  C144  1  1.156300  0.250000  -0.022100  1
  C  C145  1  1.497600  0.454100  -0.175700  1
  C  C146  1  1.444000  0.431100  -0.052100  1
  C  C147  1  1.497600  0.045900  -0.175700  1
  C  C148  1  1.444000  0.068900  -0.052100  1
  C  C149  1  1.222500  0.319200  -0.362400  1
  C  C150  1  1.222500  0.180800  -0.362400  1
  C  C151  1  1.128400  0.320400  0.005500  1
  C  C152  1  1.128400  0.179600  0.005500  1
  C  C153  1  1.517200  0.454000  -0.098200  1
  C  C154  1  1.517200  0.046000  -0.098200  1
  C  C155  1  1.169700  0.250000  -0.371800  1
  C  C156  1  1.151700  0.389000  -0.023600  1
  C  C157  1  1.075100  0.319900  0.065600  1
  C  C158  1  1.151700  0.111000  -0.023600  1
  C  C159  1  1.075100  0.180100  0.065600  1
  C  C160  1  1.127100  0.458000  0.003600  1
  C  C161  1  1.049400  0.389600  0.092700  1
  C  C162  1  1.051500  0.250000  0.095100  1
  C  C163  1  1.127100  0.042000  0.003600  1
  C  C164  1  1.049400  0.110400  0.092700  1
  C  C165  1  1.150800  0.530300  -0.025400  1
  C  C166  1  1.072500  0.458500  0.063500  1
  C  C167  1  1.002200  0.250000  0.158000  1
  C  C168  1  1.150800  -0.030300  -0.025400  1
  C  C169  1  1.072500  0.041500  0.063500  1
  C  C170  1  1.126300  0.596700  0.002900  1
  C  C171  1  1.047200  0.529200  0.091200  1
  C  C172  1  0.963000  0.250000  0.212200  1
  C  C173  1  1.126300  -0.096700  0.002900  1
  C  C174  1  1.047200  -0.029200  0.091200  1
  C  C175  1  1.072100  0.598400  0.062500  1
  C  C176  1  1.137300  0.675600  -0.026500  1
  C  C177  1  1.072100  -0.098400  0.062500  1
  C  C178  1  1.137300  -0.175600  -0.026500  1
  C  C179  1  1.029200  0.674800  0.093000  1
  C  C180  1  0.843700  0.343000  0.288700  1
  C  C181  1  0.843700  0.157000  0.288700  1
  C  C182  1  0.973700  0.250000  0.369000  1
  C  C183  1  1.029200  -0.174800  0.093000  1
  C  C184  1  0.789200  0.351100  0.224200  1
  C  C185  1  0.798800  0.363100  0.356200  1
  C  C186  1  0.789200  0.148900  0.224200  1
  C  C187  1  0.798800  0.136900  0.356200  1
  C  C188  1  1.027200  0.320200  0.369800  1
  C  C189  1  1.027200  0.179800  0.369800  1
  C  C190  1  0.753400  0.430900  0.218300  1
  C  C191  1  0.763400  0.443900  0.349800  1
  C  C192  1  0.753400  0.069100  0.218300  1
  C  C193  1  0.763400  0.056100  0.349800  1
  C  C194  1  1.090100  0.319900  0.428900  1
  C  C195  1  1.090100  0.180100  0.428900  1
  C  C196  1  0.709700  0.450400  0.284800  1
  C  C197  1  0.709700  0.049600  0.284800  1
  C  C198  1  1.139800  0.250000  0.426100  1
  C  C199  1  0.234000  -0.250000  0.377300  1
  C  C200  1  0.105600  -0.352400  0.345600  1
  C  C201  1  0.105600  -0.147600  0.345600  1
  C  C202  1  0.190400  -0.250000  0.227400  1
  C  C203  1  0.286400  -0.250000  0.422300  1
  C  C204  1  0.035600  -0.377400  0.301800  1
  C  C205  1  0.081500  -0.352200  0.424100  1
  C  C206  1  0.035600  -0.122600  0.301800  1
  C  C207  1  0.081500  -0.147800  0.424100  1
  C  C208  1  0.240100  -0.319800  0.210900  1
  C  C209  1  0.240100  -0.180200  0.210900  1
  C  C210  1  0.343700  -0.250000  0.477900  1
  C  C211  1  0.002400  -0.454100  0.324300  1
  C  C212  1  0.056000  -0.431100  0.447900  1
  C  C213  1  0.002400  -0.045900  0.324300  1
  C  C214  1  0.056000  -0.068900  0.447900  1
  C  C215  1  0.277500  -0.319200  0.137600  1
  C  C216  1  0.277500  -0.180800  0.137600  1
  C  C217  1  0.371600  -0.320400  0.505500  1
  C  C218  1  0.371600  -0.179600  0.505500  1
  C  C219  1  -0.017200  -0.454000  0.401800  1
  C  C220  1  -0.017200  -0.046000  0.401800  1
  C  C221  1  0.330300  -0.250000  0.128200  1
  C  C222  1  0.348300  -0.389000  0.476400  1
  C  C223  1  0.424900  -0.319900  0.565600  1
  C  C224  1  0.348300  -0.111000  0.476400  1
  C  C225  1  0.424900  -0.180100  0.565600  1
  C  C226  1  0.372900  -0.458000  0.503600  1
  C  C227  1  0.450600  -0.389600  0.592700  1
  C  C228  1  0.448500  -0.250000  0.595100  1
  C  C229  1  0.372900  -0.042000  0.503600  1
  C  C230  1  0.450600  -0.110400  0.592700  1
  C  C231  1  0.349200  -0.530300  0.474600  1
  C  C232  1  0.427500  -0.458500  0.563500  1
  C  C233  1  0.497800  -0.250000  0.658000  1
  C  C234  1  0.349200  0.030300  0.474600  1
  C  C235  1  0.427500  -0.041500  0.563500  1
  C  C236  1  0.373700  -0.596700  0.502900  1
  C  C237  1  0.452800  -0.529200  0.591200  1
  C  C238  1  0.537000  -0.250000  0.712200  1
  C  C239  1  0.373700  0.096700  0.502900  1
  C  C240  1  0.452800  0.029200  0.591200  1
  C  C241  1  0.427900  -0.598400  0.562500  1
  C  C242  1  0.362700  -0.675600  0.473500  1
  C  C243  1  0.427900  0.098400  0.562500  1
  C  C244  1  0.362700  0.175600  0.473500  1
  C  C245  1  0.470800  -0.674800  0.593000  1
  C  C246  1  0.656300  -0.343000  0.788700  1
  C  C247  1  0.656300  -0.157000  0.788700  1
  C  C248  1  0.526300  -0.250000  0.869000  1
  C  C249  1  0.470800  0.174800  0.593000  1
  C  C250  1  0.710800  -0.351100  0.724200  1
  C  C251  1  0.701200  -0.363100  0.856200  1
  C  C252  1  0.710800  -0.148900  0.724200  1
  C  C253  1  0.701200  -0.136900  0.856200  1
  C  C254  1  0.472800  -0.320200  0.869800  1
  C  C255  1  0.472800  -0.179800  0.869800  1
  C  C256  1  0.746600  -0.430900  0.718300  1
  C  C257  1  0.736600  -0.443900  0.849800  1
  C  C258  1  0.746600  -0.069100  0.718300  1
  C  C259  1  0.736600  -0.056100  0.849800  1
  C  C260  1  0.409900  -0.319900  0.928900  1
  C  C261  1  0.409900  -0.180100  0.928900  1
  C  C262  1  0.790300  -0.450400  0.784800  1
  C  C263  1  0.790300  -0.049600  0.784800  1
  C  C264  1  0.360200  -0.250000  0.926100  1
  H  H265  1  0.850300  0.109600  0.660700  1
  H  H266  1  0.850300  0.390400  0.660700  1
  H  H267  1  0.856200  0.250000  0.806100  1
  H  H268  1  0.947500  0.119700  0.748400  1
  H  H269  1  1.007500  0.161100  0.694700  1
  H  H270  1  0.872400  0.165100  0.546900  1
  H  H271  1  0.963300  0.184000  0.568600  1
  H  H272  1  0.947500  0.380300  0.748400  1
  H  H273  1  1.007500  0.338900  0.694700  1
  H  H274  1  0.872400  0.334900  0.546900  1
  H  H275  1  0.963300  0.316000  0.568600  1
  H  H276  1  0.794500  0.134600  0.784600  1
  H  H277  1  0.716500  0.175800  0.753500  1
  H  H278  1  0.794500  0.365400  0.784600  1
  H  H279  1  0.716500  0.324200  0.753500  1
  H  H280  1  1.046700  0.034400  0.703300  1
  H  H281  1  0.957500  0.005700  0.685800  1
  H  H282  1  0.959000  0.069500  0.501400  1
  H  H283  1  0.899400  0.032300  0.558800  1
  H  H284  1  1.046700  0.465600  0.703300  1
  H  H285  1  0.957500  0.494300  0.685800  1
  H  H286  1  0.959000  0.430500  0.501400  1
  H  H287  1  0.899400  0.467700  0.558800  1
  H  H288  1  0.690100  0.134100  0.869100  1
  H  H289  1  0.765500  0.181100  0.898600  1
  H  H290  1  0.690100  0.365900  0.869100  1
  H  H291  1  0.765500  0.318900  0.898600  1
  H  H292  1  1.035500  -0.005400  0.584100  1
  H  H293  1  1.061900  0.082000  0.589400  1
  H  H294  1  1.035500  0.505400  0.584100  1
  H  H295  1  1.061900  0.418000  0.589400  1
  H  H296  1  0.645200  0.250000  0.919500  1
  H  H297  1  0.626100  0.250000  0.836100  1
  H  H298  1  0.685900  0.111400  0.563800  1
  H  H299  1  0.685900  0.388600  0.563800  1
  H  H300  1  0.514700  0.110200  0.367400  1
  H  H301  1  0.514700  0.389800  0.367400  1
  H  H302  1  0.684700  -0.031200  0.565800  1
  H  H303  1  0.684700  0.531200  0.565800  1
  H  H304  1  0.512000  -0.029600  0.369200  1
  H  H305  1  0.512000  0.529600  0.369200  1
  H  H306  1  0.385500  0.116500  0.216800  1
  H  H307  1  0.385500  0.383500  0.216800  1
  H  H308  1  0.441400  0.250000  0.086300  1
  H  H309  1  0.245100  0.186500  0.272600  1
  H  H310  1  0.320500  0.160100  0.319100  1
  H  H311  1  0.335900  0.139200  0.102900  1
  H  H312  1  0.254900  0.174000  0.135700  1
  H  H313  1  0.245100  0.313500  0.272600  1
  H  H314  1  0.320500  0.339900  0.319100  1
  H  H315  1  0.335900  0.360800  0.102900  1
  H  H316  1  0.254900  0.326000  0.135700  1
  H  H317  1  0.492900  0.134100  0.124800  1
  H  H318  1  0.555000  0.175800  0.176400  1
  H  H319  1  0.492900  0.365900  0.124800  1
  H  H320  1  0.555000  0.324200  0.176400  1
  H  H321  1  0.296800  0.031600  0.290100  1
  H  H322  1  0.215800  0.067000  0.322300  1
  H  H323  1  0.231800  0.044200  0.107300  1
  H  H324  1  0.307700  0.018700  0.153700  1
  H  H325  1  0.296800  0.468400  0.290100  1
  H  H326  1  0.215800  0.433000  0.322300  1
  H  H327  1  0.231800  0.455800  0.107300  1
  H  H328  1  0.307700  0.481300  0.153700  1
  H  H329  1  0.625200  0.135000  0.076000  1
  H  H330  1  0.562800  0.177100  0.024700  1
  H  H331  1  0.625200  0.365000  0.076000  1
  H  H332  1  0.562800  0.322900  0.024700  1
  H  H333  1  0.163100  0.084100  0.209700  1
  H  H334  1  0.189000  -0.003100  0.218700  1
  H  H335  1  0.163100  0.415900  0.209700  1
  H  H336  1  0.189000  0.503100  0.218700  1
  H  H337  1  0.671700  0.250000  0.118100  1
  H  H338  1  0.677700  0.250000  0.033500  1
  H  H339  1  0.649700  -0.109600  1.160700  1
  H  H340  1  0.649700  -0.390400  1.160700  1
  H  H341  1  0.643800  -0.250000  1.306100  1
  H  H342  1  0.552500  -0.119700  1.248400  1
  H  H343  1  0.492500  -0.161100  1.194700  1
  H  H344  1  0.627600  -0.165100  1.046900  1
  H  H345  1  0.536700  -0.184000  1.068600  1
  H  H346  1  0.552500  -0.380300  1.248400  1
  H  H347  1  0.492500  -0.338900  1.194700  1
  H  H348  1  0.627600  -0.334900  1.046900  1
  H  H349  1  0.536700  -0.316000  1.068600  1
  H  H350  1  0.705500  -0.134600  1.284600  1
  H  H351  1  0.783500  -0.175800  1.253500  1
  H  H352  1  0.705500  -0.365400  1.284600  1
  H  H353  1  0.783500  -0.324200  1.253500  1
  H  H354  1  0.453300  -0.034400  1.203300  1
  H  H355  1  0.542500  -0.005700  1.185800  1
  H  H356  1  0.541000  -0.069500  1.001400  1
  H  H357  1  0.600600  -0.032300  1.058800  1
  H  H358  1  0.453300  -0.465600  1.203300  1
  H  H359  1  0.542500  -0.494300  1.185800  1
  H  H360  1  0.541000  -0.430500  1.001400  1
  H  H361  1  0.600600  -0.467700  1.058800  1
  H  H362  1  0.809900  -0.134100  1.369100  1
  H  H363  1  0.734500  -0.181100  1.398600  1
  H  H364  1  0.809900  -0.365900  1.369100  1
  H  H365  1  0.734500  -0.318900  1.398600  1
  H  H366  1  0.464500  0.005400  1.084100  1
  H  H367  1  0.438100  -0.082000  1.089400  1
  H  H368  1  0.464500  -0.505400  1.084100  1
  H  H369  1  0.438100  -0.418000  1.089400  1
  H  H370  1  0.854800  -0.250000  1.419500  1
  H  H371  1  0.873900  -0.250000  1.336100  1
  H  H372  1  0.814100  -0.111400  1.063800  1
  H  H373  1  0.814100  -0.388600  1.063800  1
  H  H374  1  0.985300  -0.110200  0.867400  1
  H  H375  1  0.985300  -0.389800  0.867400  1
  H  H376  1  0.815300  0.031200  1.065800  1
  H  H377  1  0.815300  -0.531200  1.065800  1
  H  H378  1  0.988000  0.029600  0.869200  1
  H  H379  1  0.988000  -0.529600  0.869200  1
  H  H380  1  1.114500  -0.116500  0.716800  1
  H  H381  1  1.114500  -0.383500  0.716800  1
  H  H382  1  1.058600  -0.250000  0.586300  1
  H  H383  1  1.254900  -0.186500  0.772600  1
  H  H384  1  1.179500  -0.160100  0.819100  1
  H  H385  1  1.164100  -0.139200  0.602900  1
  H  H386  1  1.245100  -0.174000  0.635700  1
  H  H387  1  1.254900  -0.313500  0.772600  1
  H  H388  1  1.179500  -0.339900  0.819100  1
  H  H389  1  1.164100  -0.360800  0.602900  1
  H  H390  1  1.245100  -0.326000  0.635700  1
  H  H391  1  1.007100  -0.134100  0.624800  1
  H  H392  1  0.945000  -0.175800  0.676400  1
  H  H393  1  1.007100  -0.365900  0.624800  1
  H  H394  1  0.945000  -0.324200  0.676400  1
  H  H395  1  1.203200  -0.031600  0.790100  1
  H  H396  1  1.284200  -0.067000  0.822300  1
  H  H397  1  1.268200  -0.044200  0.607300  1
  H  H398  1  1.192300  -0.018700  0.653700  1
  H  H399  1  1.203200  -0.468400  0.790100  1
  H  H400  1  1.284200  -0.433000  0.822300  1
  H  H401  1  1.268200  -0.455800  0.607300  1
  H  H402  1  1.192300  -0.481300  0.653700  1
  H  H403  1  0.874800  -0.135000  0.576000  1
  H  H404  1  0.937200  -0.177100  0.524700  1
  H  H405  1  0.874800  -0.365000  0.576000  1
  H  H406  1  0.937200  -0.322900  0.524700  1
  H  H407  1  1.336900  -0.084100  0.709700  1
  H  H408  1  1.311000  0.003100  0.718700  1
  H  H409  1  1.336900  -0.415900  0.709700  1
  H  H410  1  1.311000  -0.503100  0.718700  1
  H  H411  1  0.828300  -0.250000  0.618100  1
  H  H412  1  0.822300  -0.250000  0.533500  1
  H  H413  1  1.350300  0.390400  -0.160700  1
  H  H414  1  1.350300  0.109600  -0.160700  1
  H  H415  1  1.356200  0.250000  -0.306100  1
  H  H416  1  1.447500  0.380300  -0.248400  1
  H  H417  1  1.507500  0.338900  -0.194700  1
  H  H418  1  1.372400  0.334900  -0.046900  1
  H  H419  1  1.463300  0.316000  -0.068600  1
  H  H420  1  1.447500  0.119700  -0.248400  1
  H  H421  1  1.507500  0.161100  -0.194700  1
  H  H422  1  1.372400  0.165100  -0.046900  1
  H  H423  1  1.463300  0.184000  -0.068600  1
  H  H424  1  1.294500  0.365400  -0.284600  1
  H  H425  1  1.216500  0.324200  -0.253500  1
  H  H426  1  1.294500  0.134600  -0.284600  1
  H  H427  1  1.216500  0.175800  -0.253500  1
  H  H428  1  1.546700  0.465600  -0.203300  1
  H  H429  1  1.457500  0.494300  -0.185800  1
  H  H430  1  1.459000  0.430500  -0.001400  1
  H  H431  1  1.399400  0.467700  -0.058800  1
  H  H432  1  1.546700  0.034400  -0.203300  1
  H  H433  1  1.457500  0.005700  -0.185800  1
  H  H434  1  1.459000  0.069500  -0.001400  1
  H  H435  1  1.399400  0.032300  -0.058800  1
  H  H436  1  1.190100  0.365900  -0.369100  1
  H  H437  1  1.265500  0.318900  -0.398600  1
  H  H438  1  1.190100  0.134100  -0.369100  1
  H  H439  1  1.265500  0.181100  -0.398600  1
  H  H440  1  1.535500  0.505400  -0.084100  1
  H  H441  1  1.561900  0.418000  -0.089400  1
  H  H442  1  1.535500  -0.005400  -0.084100  1
  H  H443  1  1.561900  0.082000  -0.089400  1
  H  H444  1  1.145200  0.250000  -0.419500  1
  H  H445  1  1.126100  0.250000  -0.336100  1
  H  H446  1  1.185900  0.388600  -0.063800  1
  H  H447  1  1.185900  0.111400  -0.063800  1
  H  H448  1  1.014700  0.389800  0.132600  1
  H  H449  1  1.014700  0.110200  0.132600  1
  H  H450  1  1.184700  0.531200  -0.065800  1
  H  H451  1  1.184700  -0.031200  -0.065800  1
  H  H452  1  1.012000  0.529600  0.130800  1
  H  H453  1  1.012000  -0.029600  0.130800  1
  H  H454  1  0.885500  0.383500  0.283200  1
  H  H455  1  0.885500  0.116500  0.283200  1
  H  H456  1  0.941400  0.250000  0.413700  1
  H  H457  1  0.745100  0.313500  0.227400  1
  H  H458  1  0.820500  0.339900  0.180900  1
  H  H459  1  0.835900  0.360800  0.397100  1
  H  H460  1  0.754900  0.326000  0.364300  1
  H  H461  1  0.745100  0.186500  0.227400  1
  H  H462  1  0.820500  0.160100  0.180900  1
  H  H463  1  0.835900  0.139200  0.397100  1
  H  H464  1  0.754900  0.174000  0.364300  1
  H  H465  1  0.992900  0.365900  0.375200  1
  H  H466  1  1.055000  0.324200  0.323600  1
  H  H467  1  0.992900  0.134100  0.375200  1
  H  H468  1  1.055000  0.175800  0.323600  1
  H  H469  1  0.796800  0.468400  0.209900  1
  H  H470  1  0.715800  0.433000  0.177700  1
  H  H471  1  0.731800  0.455800  0.392700  1
  H  H472  1  0.807700  0.481300  0.346300  1
  H  H473  1  0.796800  0.031600  0.209900  1
  H  H474  1  0.715800  0.067000  0.177700  1
  H  H475  1  0.731800  0.044200  0.392700  1
  H  H476  1  0.807700  0.018700  0.346300  1
  H  H477  1  1.125200  0.365000  0.424000  1
  H  H478  1  1.062800  0.322900  0.475300  1
  H  H479  1  1.125200  0.135000  0.424000  1
  H  H480  1  1.062800  0.177100  0.475300  1
  H  H481  1  0.663100  0.415900  0.290300  1
  H  H482  1  0.689000  0.503100  0.281300  1
  H  H483  1  0.663100  0.084100  0.290300  1
  H  H484  1  0.689000  -0.003100  0.281300  1
  H  H485  1  1.171700  0.250000  0.381900  1
  H  H486  1  1.177700  0.250000  0.466500  1
  H  H487  1  0.149700  -0.390400  0.339300  1
  H  H488  1  0.149700  -0.109600  0.339300  1
  H  H489  1  0.143800  -0.250000  0.193900  1
  H  H490  1  0.052500  -0.380300  0.251600  1
  H  H491  1  -0.007500  -0.338900  0.305300  1
  H  H492  1  0.127600  -0.334900  0.453100  1
  H  H493  1  0.036700  -0.316000  0.431400  1
  H  H494  1  0.052500  -0.119700  0.251600  1
  H  H495  1  -0.007500  -0.161100  0.305300  1
  H  H496  1  0.127600  -0.165100  0.453100  1
  H  H497  1  0.036700  -0.184000  0.431400  1
  H  H498  1  0.205500  -0.365400  0.215400  1
  H  H499  1  0.283500  -0.324200  0.246500  1
  H  H500  1  0.205500  -0.134600  0.215400  1
  H  H501  1  0.283500  -0.175800  0.246500  1
  H  H502  1  -0.046700  -0.465600  0.296700  1
  H  H503  1  0.042500  -0.494300  0.314200  1
  H  H504  1  0.041000  -0.430500  0.498600  1
  H  H505  1  0.100600  -0.467700  0.441200  1
  H  H506  1  -0.046700  -0.034400  0.296700  1
  H  H507  1  0.042500  -0.005700  0.314200  1
  H  H508  1  0.041000  -0.069500  0.498600  1
  H  H509  1  0.100600  -0.032300  0.441200  1
  H  H510  1  0.309900  -0.365900  0.130900  1
  H  H511  1  0.234500  -0.318900  0.101400  1
  H  H512  1  0.309900  -0.134100  0.130900  1
  H  H513  1  0.234500  -0.181100  0.101400  1
  H  H514  1  -0.035500  -0.505400  0.415900  1
  H  H515  1  -0.061900  -0.418000  0.410600  1
  H  H516  1  -0.035500  0.005400  0.415900  1
  H  H517  1  -0.061900  -0.082000  0.410600  1
  H  H518  1  0.354800  -0.250000  0.080500  1
  H  H519  1  0.373900  -0.250000  0.163900  1
  H  H520  1  0.314100  -0.388600  0.436200  1
  H  H521  1  0.314100  -0.111400  0.436200  1
  H  H522  1  0.485300  -0.389800  0.632600  1
  H  H523  1  0.485300  -0.110200  0.632600  1
  H  H524  1  0.315300  -0.531200  0.434200  1
  H  H525  1  0.315300  0.031200  0.434200  1
  H  H526  1  0.488000  -0.529600  0.630800  1
  H  H527  1  0.488000  0.029600  0.630800  1
  H  H528  1  0.614500  -0.383500  0.783200  1
  H  H529  1  0.614500  -0.116500  0.783200  1
  H  H530  1  0.558600  -0.250000  0.913700  1
  H  H531  1  0.754900  -0.313500  0.727400  1
  H  H532  1  0.679500  -0.339900  0.680900  1
  H  H533  1  0.664100  -0.360800  0.897100  1
  H  H534  1  0.745100  -0.326000  0.864300  1
  H  H535  1  0.754900  -0.186500  0.727400  1
  H  H536  1  0.679500  -0.160100  0.680900  1
  H  H537  1  0.664100  -0.139200  0.897100  1
  H  H538  1  0.745100  -0.174000  0.864300  1
  H  H539  1  0.507100  -0.365900  0.875200  1
  H  H540  1  0.445000  -0.324200  0.823600  1
  H  H541  1  0.507100  -0.134100  0.875200  1
  H  H542  1  0.445000  -0.175800  0.823600  1
  H  H543  1  0.703200  -0.468400  0.709900  1
  H  H544  1  0.784200  -0.433000  0.677700  1
  H  H545  1  0.768200  -0.455800  0.892700  1
  H  H546  1  0.692300  -0.481300  0.846300  1
  H  H547  1  0.703200  -0.031600  0.709900  1
  H  H548  1  0.784200  -0.067000  0.677700  1
  H  H549  1  0.768200  -0.044200  0.892700  1
  H  H550  1  0.692300  -0.018700  0.846300  1
  H  H551  1  0.374800  -0.365000  0.924000  1
  H  H552  1  0.437200  -0.322900  0.975300  1
  H  H553  1  0.374800  -0.135000  0.924000  1
  H  H554  1  0.437200  -0.177100  0.975300  1
  H  H555  1  0.836900  -0.415900  0.790300  1
  H  H556  1  0.811000  -0.503100  0.781300  1
  H  H557  1  0.836900  -0.084100  0.790300  1
  H  H558  1  0.811000  0.003100  0.781300  1
  H  H559  1  0.328300  -0.250000  0.881900  1
  H  H560  1  0.322300  -0.250000  0.966500  1
  N  N561  1  0.655500  -0.250000  0.548500  1
  N  N562  1  0.506900  -0.250000  0.384300  1
  N  N563  1  0.844500  0.250000  1.048500  1
  N  N564  1  0.993100  0.250000  0.884300  1
  N  N565  1  1.155500  0.750000  -0.048500  1
  N  N566  1  1.006900  0.750000  0.115700  1
  N  N567  1  0.344500  -0.750000  0.451500  1
  N  N568  1  0.493100  -0.750000  0.615700  1
  Si  Si569  1  0.851500  0.250000  0.681900  1.0
  Si  Si570  1  0.401550  0.250000  0.207390  1
  Si  Si571  1  0.648500  -0.250000  1.181900  1.0
  Si  Si572  1  1.098450  -0.250000  0.707390  1
  Si  Si573  1  1.351500  0.250000  -0.181900  1.0
  Si  Si574  1  0.901550  0.250000  0.292610  1
  Si  Si575  1  0.148500  -0.250000  0.318100  1.0
  Si  Si576  1  0.598450  -0.250000  0.792610  1
