# generated using pymatgen
data_SiH25(C11Br)2
_symmetry_space_group_name_H-M   'P 1'
_cell_length_a   8.67500000
_cell_length_b   17.63200000
_cell_length_c   14.65700000
_cell_angle_alpha   90.00000000
_cell_angle_beta   105.82400000
_cell_angle_gamma   90.00000000
_symmetry_Int_Tables_number   1
_chemical_formula_structural   SiH25(C11Br)2
_chemical_formula_sum   'Si4 H100 C88 Br8'
_cell_volume   2156.94019670
_cell_formula_units_Z   4
loop_
 _symmetry_equiv_pos_site_id
 _symmetry_equiv_pos_as_xyz
  1  'x, y, z'
loop_
 _atom_site_type_symbol
 _atom_site_label
 _atom_site_symmetry_multiplicity
 _atom_site_fract_x
 _atom_site_fract_y
 _atom_site_fract_z
 _atom_site_occupancy
  Br  Br1  1  0.266870  0.072380  1.211390  1
  Br  Br2  1  1.649880  0.111340  0.736200  1
  Br  Br3  1  0.350120  -0.111340  1.263800  1
  Br  Br4  1  1.733130  -0.072380  0.788610  1
  Br  Br5  1  1.733130  -0.427620  1.288610  1
  Br  Br6  1  0.350120  -0.388660  1.763800  1
  Br  Br7  1  1.649880  -0.611340  1.236200  1
  Br  Br8  1  0.266870  -0.572380  1.711390  1
  C  C9  1  0.922800  0.225200  0.958000  1
  C  C10  1  0.879200  0.357500  0.821200  1
  C  C11  1  1.048200  0.377000  1.037500  1
  C  C12  1  0.684300  0.343200  0.969300  1
  C  C13  1  0.943700  0.157800  0.968300  1
  C  C14  1  0.971900  0.307200  0.773100  1
  C  C15  1  0.926800  0.441400  0.816200  1
  C  C16  1  1.214500  0.358600  1.027500  1
  C  C17  1  1.040200  0.357800  1.137900  1
  C  C18  1  0.631000  0.427300  0.961700  1
  C  C19  1  0.553100  0.293100  0.909300  1
  C  C20  1  0.969700  0.078100  0.982100  1
  C  C21  1  0.870600  0.036400  1.025300  1
  C  C22  1  1.098400  0.043400  0.955200  1
  C  C23  1  0.740700  0.070100  1.051400  1
  C  C24  1  0.901600  -0.043400  1.044800  1
  C  C25  1  1.129400  -0.036400  0.974700  1
  C  C26  1  1.194600  0.084500  0.909700  1
  C  C27  1  0.647400  0.029000  1.097200  1
  C  C28  1  1.030300  -0.078100  1.017900  1
  C  C29  1  0.805400  -0.084500  1.090300  1
  C  C30  1  1.259300  -0.070100  0.948600  1
  C  C31  1  1.319500  0.050500  0.882900  1
  C  C32  1  0.518200  0.064000  1.125600  1
  C  C33  1  0.680500  -0.050500  1.117100  1
  C  C34  1  1.056300  -0.157800  1.031700  1
  C  C35  1  1.352600  -0.029000  0.902800  1
  C  C36  1  1.414200  0.090800  0.832700  1
  C  C37  1  0.432700  0.023500  1.173300  1
  C  C38  1  0.585800  -0.090800  1.167300  1
  C  C39  1  1.077200  -0.225200  1.042000  1
  C  C40  1  1.481800  -0.064000  0.874400  1
  C  C41  1  1.532300  0.054800  0.805000  1
  C  C42  1  0.467700  -0.054800  1.195000  1
  C  C43  1  1.567300  -0.023500  0.826700  1
  C  C44  1  1.120800  -0.357500  1.178800  1
  C  C45  1  0.951800  -0.377000  0.962500  1
  C  C46  1  1.315700  -0.343200  1.030700  1
  C  C47  1  1.028100  -0.307200  1.226900  1
  C  C48  1  1.073200  -0.441400  1.183800  1
  C  C49  1  0.785500  -0.358600  0.972500  1
  C  C50  1  0.959800  -0.357800  0.862100  1
  C  C51  1  1.369000  -0.427300  1.038300  1
  C  C52  1  1.446900  -0.293100  1.090700  1
  C  C53  1  1.077200  -0.274800  1.542000  1
  C  C54  1  1.120800  -0.142500  1.678800  1
  C  C55  1  0.951800  -0.123000  1.462500  1
  C  C56  1  1.315700  -0.156800  1.530700  1
  C  C57  1  1.056300  -0.342200  1.531700  1
  C  C58  1  1.028100  -0.192800  1.726900  1
  C  C59  1  1.073200  -0.058600  1.683800  1
  C  C60  1  0.785500  -0.141400  1.472500  1
  C  C61  1  0.959800  -0.142200  1.362100  1
  C  C62  1  1.369000  -0.072700  1.538300  1
  C  C63  1  1.446900  -0.206900  1.590700  1
  C  C64  1  1.030300  -0.421900  1.517900  1
  C  C65  1  1.129400  -0.463600  1.474700  1
  C  C66  1  0.901600  -0.456600  1.544800  1
  C  C67  1  1.259300  -0.429900  1.448600  1
  C  C68  1  1.098400  -0.543400  1.455200  1
  C  C69  1  0.870600  -0.536400  1.525300  1
  C  C70  1  0.805400  -0.415500  1.590300  1
  C  C71  1  1.352600  -0.471000  1.402800  1
  C  C72  1  0.969700  -0.578100  1.482100  1
  C  C73  1  1.194600  -0.584500  1.409700  1
  C  C74  1  0.740700  -0.570100  1.551400  1
  C  C75  1  0.680500  -0.449500  1.617100  1
  C  C76  1  1.481800  -0.436000  1.374400  1
  C  C77  1  1.319500  -0.550500  1.382900  1
  C  C78  1  0.943700  -0.657800  1.468300  1
  C  C79  1  0.647400  -0.529000  1.597200  1
  C  C80  1  0.585800  -0.409200  1.667300  1
  C  C81  1  1.567300  -0.476500  1.326700  1
  C  C82  1  1.414200  -0.590800  1.332700  1
  C  C83  1  0.922800  -0.725200  1.458000  1
  C  C84  1  0.518200  -0.564000  1.625600  1
  C  C85  1  0.467700  -0.445200  1.695000  1
  C  C86  1  1.532300  -0.554800  1.305000  1
  C  C87  1  0.432700  -0.523500  1.673300  1
  C  C88  1  0.879200  -0.857500  1.321200  1
  C  C89  1  1.048200  -0.877000  1.537500  1
  C  C90  1  0.684300  -0.843200  1.469300  1
  C  C91  1  0.971900  -0.807200  1.273100  1
  C  C92  1  0.926800  -0.941400  1.316200  1
  C  C93  1  1.214500  -0.858600  1.527500  1
  C  C94  1  1.040200  -0.857800  1.637900  1
  C  C95  1  0.631000  -0.927300  1.461700  1
  C  C96  1  0.553100  -0.793100  1.409300  1
  H  H97  1  0.764800  0.353700  0.783100  1
  H  H98  1  1.032000  0.432900  1.028600  1
  H  H99  1  0.698000  0.327800  1.036700  1
  H  H100  1  0.960900  0.325700  0.708600  1
  H  H101  1  0.930100  0.255300  0.770300  1
  H  H102  1  1.085200  0.307500  0.808900  1
  H  H103  1  1.036100  0.449200  0.856400  1
  H  H104  1  0.852700  0.473800  0.838500  1
  H  H105  1  0.921900  0.454600  0.750500  1
  H  H106  1  1.295200  0.386800  1.075300  1
  H  H107  1  1.220600  0.373000  0.964000  1
  H  H108  1  1.234700  0.304000  1.036700  1
  H  H109  1  1.058400  0.303300  1.149300  1
  H  H110  1  0.934300  0.371300  1.144700  1
  H  H111  1  1.122800  0.386400  1.184000  1
  H  H112  1  0.619300  0.445500  0.897000  1
  H  H113  1  0.711700  0.457800  1.006400  1
  H  H114  1  0.528100  0.431700  0.976900  1
  H  H115  1  0.454900  0.299800  0.929300  1
  H  H116  1  0.586900  0.239900  0.917500  1
  H  H117  1  0.532700  0.307300  0.842400  1
  H  H118  1  0.716700  0.122100  1.037100  1
  H  H119  1  1.173600  0.136900  0.897000  1
  H  H120  1  0.826400  -0.136900  1.103000  1
  H  H121  1  1.283300  -0.122100  0.962900  1
  H  H122  1  0.492700  0.115700  1.110900  1
  H  H123  1  1.394400  0.143000  0.818800  1
  H  H124  1  0.605600  -0.143000  1.181200  1
  H  H125  1  1.507300  -0.115700  0.889100  1
  H  H126  1  1.235200  -0.353700  1.216900  1
  H  H127  1  0.968000  -0.432900  0.971400  1
  H  H128  1  1.302000  -0.327800  0.963300  1
  H  H129  1  1.039100  -0.325700  1.291400  1
  H  H130  1  1.069900  -0.255300  1.229700  1
  H  H131  1  0.914800  -0.307500  1.191100  1
  H  H132  1  0.963900  -0.449200  1.143600  1
  H  H133  1  1.147300  -0.473800  1.161500  1
  H  H134  1  1.078100  -0.454600  1.249500  1
  H  H135  1  0.704800  -0.386800  0.924700  1
  H  H136  1  0.779400  -0.373000  1.036000  1
  H  H137  1  0.765300  -0.304000  0.963300  1
  H  H138  1  0.941600  -0.303300  0.850700  1
  H  H139  1  1.065700  -0.371300  0.855300  1
  H  H140  1  0.877200  -0.386400  0.816000  1
  H  H141  1  1.380700  -0.445500  1.103000  1
  H  H142  1  1.288300  -0.457800  0.993600  1
  H  H143  1  1.471900  -0.431700  1.023100  1
  H  H144  1  1.545100  -0.299800  1.070700  1
  H  H145  1  1.413100  -0.239900  1.082500  1
  H  H146  1  1.467300  -0.307300  1.157600  1
  H  H147  1  1.235200  -0.146300  1.716900  1
  H  H148  1  0.968000  -0.067100  1.471400  1
  H  H149  1  1.302000  -0.172200  1.463300  1
  H  H150  1  1.039100  -0.174300  1.791400  1
  H  H151  1  1.069900  -0.244700  1.729700  1
  H  H152  1  0.914800  -0.192500  1.691100  1
  H  H153  1  0.963900  -0.050800  1.643600  1
  H  H154  1  1.147300  -0.026200  1.661500  1
  H  H155  1  1.078100  -0.045400  1.749500  1
  H  H156  1  0.704800  -0.113200  1.424700  1
  H  H157  1  0.779400  -0.127000  1.536000  1
  H  H158  1  0.765300  -0.196000  1.463300  1
  H  H159  1  0.941600  -0.196700  1.350700  1
  H  H160  1  1.065700  -0.128700  1.355300  1
  H  H161  1  0.877200  -0.113600  1.316000  1
  H  H162  1  1.380700  -0.054500  1.603000  1
  H  H163  1  1.288300  -0.042200  1.493600  1
  H  H164  1  1.471900  -0.068300  1.523100  1
  H  H165  1  1.545100  -0.200200  1.570700  1
  H  H166  1  1.413100  -0.260100  1.582500  1
  H  H167  1  1.467300  -0.192700  1.657600  1
  H  H168  1  1.283300  -0.377900  1.462900  1
  H  H169  1  0.826400  -0.363100  1.603000  1
  H  H170  1  1.173600  -0.636900  1.397000  1
  H  H171  1  0.716700  -0.622100  1.537100  1
  H  H172  1  1.507300  -0.384300  1.389100  1
  H  H173  1  0.605600  -0.357000  1.681200  1
  H  H174  1  1.394400  -0.643000  1.318800  1
  H  H175  1  0.492700  -0.615700  1.610900  1
  H  H176  1  0.764800  -0.853700  1.283100  1
  H  H177  1  1.032000  -0.932900  1.528600  1
  H  H178  1  0.698000  -0.827800  1.536700  1
  H  H179  1  0.960900  -0.825700  1.208600  1
  H  H180  1  0.930100  -0.755300  1.270300  1
  H  H181  1  1.085200  -0.807500  1.308900  1
  H  H182  1  1.036100  -0.949200  1.356400  1
  H  H183  1  0.852700  -0.973800  1.338500  1
  H  H184  1  0.921900  -0.954600  1.250500  1
  H  H185  1  1.295200  -0.886800  1.575300  1
  H  H186  1  1.220600  -0.873000  1.464000  1
  H  H187  1  1.234700  -0.804000  1.536700  1
  H  H188  1  1.058400  -0.803300  1.649300  1
  H  H189  1  0.934300  -0.871300  1.644700  1
  H  H190  1  1.122800  -0.886400  1.684000  1
  H  H191  1  0.619300  -0.945500  1.397000  1
  H  H192  1  0.711700  -0.957800  1.506400  1
  H  H193  1  0.528100  -0.931700  1.476900  1
  H  H194  1  0.454900  -0.799800  1.429300  1
  H  H195  1  0.586900  -0.739900  1.417500  1
  H  H196  1  0.532700  -0.807300  1.342400  1
  Si  Si197  1  0.883400  0.328560  0.945060  1.0
  Si  Si198  1  1.116600  -0.328560  1.054940  1
  Si  Si199  1  1.116600  -0.171440  1.554940  1.0
  Si  Si200  1  0.883400  -0.828560  1.445060  1
