# generated using pymatgen
data_SiH26C22F
_symmetry_space_group_name_H-M   'P 1'
_cell_length_a   7.65800000
_cell_length_b   7.75020000
_cell_length_c   16.63540000
_cell_angle_alpha   89.88750000
_cell_angle_beta   79.37470000
_cell_angle_gamma   85.62750000
_symmetry_Int_Tables_number   1
_chemical_formula_structural   SiH26C22F
_chemical_formula_sum   'Si2 H52 C44 F2'
_cell_volume   967.50137777
_cell_formula_units_Z   2
loop_
 _symmetry_equiv_pos_site_id
 _symmetry_equiv_pos_as_xyz
  1  'x, y, z'
loop_
 _atom_site_type_symbol
 _atom_site_label
 _atom_site_symmetry_multiplicity
 _atom_site_fract_x
 _atom_site_fract_y
 _atom_site_fract_z
 _atom_site_occupancy
  C  C1  1  0.333800  0.808100  0.226470  1
  C  C2  1  0.352500  0.808800  0.404380  1
  C  C3  1  0.312300  0.469000  0.316160  1
  C  C4  1  -0.004500  0.738900  0.335530  1
  C  C5  1  0.386800  0.870040  0.160390  1
  C  C6  1  0.307000  1.004800  0.414580  1
  C  C7  1  0.317100  0.720500  0.487670  1
  C  C8  1  0.515100  0.433300  0.296990  1
  C  C9  1  0.226900  0.377100  0.252930  1
  C  C10  1  -0.106400  0.660900  0.415500  1
  C  C11  1  -0.079300  0.924400  0.328480  1
  C  C12  1  0.444700  0.937740  0.080560  1
  C  C13  1  0.323900  1.044290  0.043910  1
  C  C14  1  0.621400  0.893200  0.038270  1
  C  C15  1  0.148200  1.090050  0.085030  1
  C  C16  1  0.378600  1.106800  -0.038270  1
  C  C17  1  0.676100  0.955710  -0.043910  1
  C  C18  1  0.745600  0.791640  0.074390  1
  C  C19  1  0.027600  1.190200  0.048900  1
  C  C20  1  0.555300  1.062260  -0.080560  1
  C  C21  1  0.254400  1.208360  -0.074390  1
  C  C22  1  0.851800  0.909950  -0.085030  1
  C  C23  1  0.918800  0.750090  0.033670  1
  C  C24  1  -0.151500  1.235300  0.090830  1
  C  C25  1  0.081200  1.249910  -0.033670  1
  C  C26  1  0.613200  1.129960  -0.160390  1
  C  C27  1  0.972400  0.809800  -0.048900  1
  C  C28  1  1.046100  0.648600  0.070210  1
  C  C29  1  -0.264900  1.331800  0.052800  1
  C  C30  1  -0.046100  1.351400  -0.070210  1
  C  C31  1  0.666200  1.191900  -0.226470  1
  C  C32  1  1.151500  0.764700  -0.090830  1
  C  C33  1  1.212900  0.609600  0.028210  1
  C  C34  1  -0.212900  1.390400  -0.028210  1
  C  C35  1  1.264900  0.668200  -0.052800  1
  C  C36  1  0.647500  1.191200  -0.404380  1
  C  C37  1  0.687700  1.531000  -0.316160  1
  C  C38  1  1.004500  1.261100  -0.335530  1
  C  C39  1  0.693000  0.995200  -0.414580  1
  C  C40  1  0.682900  1.279500  -0.487670  1
  C  C41  1  0.484900  1.566700  -0.296990  1
  C  C42  1  0.773100  1.622900  -0.252930  1
  C  C43  1  1.106400  1.339100  -0.415500  1
  C  C44  1  1.079300  1.075600  -0.328480  1
  F  F45  1  -0.433500  1.373600  0.088350  1
  F  F46  1  1.433500  0.626400  -0.088350  1
  H  H47  1  0.484100  0.792300  0.384100  1
  H  H48  1  0.268700  0.417700  0.370700  1
  H  H49  1  -0.035800  0.673000  0.289200  1
  H  H50  1  0.180100  1.027600  0.437800  1
  H  H51  1  0.333400  1.060000  0.361100  1
  H  H52  1  0.378400  1.052000  0.451300  1
  H  H53  1  0.391100  0.767200  0.523400  1
  H  H54  1  0.346500  0.595600  0.480300  1
  H  H55  1  0.191100  0.742400  0.512600  1
  H  H56  1  0.545600  0.308100  0.294500  1
  H  H57  1  0.567100  0.484900  0.340000  1
  H  H58  1  0.562400  0.484100  0.244200  1
  H  H59  1  0.260200  0.430100  0.199300  1
  H  H60  1  0.097000  0.388300  0.269700  1
  H  H61  1  0.269300  0.254300  0.249500  1
  H  H62  1  -0.076600  0.718600  0.463000  1
  H  H63  1  -0.071600  0.536800  0.416900  1
  H  H64  1  -0.235000  0.678400  0.416800  1
  H  H65  1  -0.204100  0.925300  0.322100  1
  H  H66  1  -0.010100  0.977900  0.280800  1
  H  H67  1  -0.072100  0.989600  0.378000  1
  H  H68  1  0.111800  1.050800  0.139200  1
  H  H69  1  0.709900  0.750300  0.128300  1
  H  H70  1  0.290100  1.249700  -0.128300  1
  H  H71  1  0.888200  0.949200  -0.139200  1
  H  H72  1  -0.189700  1.197200  0.145100  1
  H  H73  1  1.013300  0.608300  0.124500  1
  H  H74  1  -0.013300  1.391700  -0.124500  1
  H  H75  1  1.189700  0.802800  -0.145100  1
  H  H76  1  1.296300  0.542000  0.053300  1
  H  H77  1  -0.296300  1.458000  -0.053300  1
  H  H78  1  0.515900  1.207700  -0.384100  1
  H  H79  1  0.731300  1.582300  -0.370700  1
  H  H80  1  1.035800  1.327000  -0.289200  1
  H  H81  1  0.819900  0.972400  -0.437800  1
  H  H82  1  0.666600  0.940000  -0.361100  1
  H  H83  1  0.621600  0.948000  -0.451300  1
  H  H84  1  0.608900  1.232800  -0.523400  1
  H  H85  1  0.653500  1.404400  -0.480300  1
  H  H86  1  0.808900  1.257600  -0.512600  1
  H  H87  1  0.454400  1.691900  -0.294500  1
  H  H88  1  0.432900  1.515100  -0.340000  1
  H  H89  1  0.437600  1.515900  -0.244200  1
  H  H90  1  0.739800  1.569900  -0.199300  1
  H  H91  1  0.903000  1.611700  -0.269700  1
  H  H92  1  0.730700  1.745700  -0.249500  1
  H  H93  1  1.076600  1.281400  -0.463000  1
  H  H94  1  1.071600  1.463200  -0.416900  1
  H  H95  1  1.235000  1.321600  -0.416800  1
  H  H96  1  1.204100  1.074700  -0.322100  1
  H  H97  1  1.010100  1.022100  -0.280800  1
  H  H98  1  1.072100  1.010400  -0.378000  1
  Si  Si99  1  0.245010  0.708370  0.324500  1.0
  Si  Si100  1  0.754990  1.291630  -0.324500  1
