# generated using pymatgen
data_SiH24C21SO
_symmetry_space_group_name_H-M   'P 1'
_cell_length_a   7.53960000
_cell_length_b   8.28330000
_cell_length_c   16.04800000
_cell_angle_alpha   100.79300000
_cell_angle_beta   92.51900000
_cell_angle_gamma   98.29500000
_symmetry_Int_Tables_number   1
_chemical_formula_structural   SiH24C21SO
_chemical_formula_sum   'Si2 H48 C42 S2 O2'
_cell_volume   971.61304053
_cell_formula_units_Z   2
loop_
 _symmetry_equiv_pos_site_id
 _symmetry_equiv_pos_as_xyz
  1  'x, y, z'
loop_
 _atom_site_type_symbol
 _atom_site_label
 _atom_site_symmetry_multiplicity
 _atom_site_fract_x
 _atom_site_fract_y
 _atom_site_fract_z
 _atom_site_occupancy
  C  C1  1  0.307900  0.653500  0.226740  1
  C  C2  1  0.167000  0.942600  0.317800  1
  C  C3  1  0.320000  0.700000  0.413200  1
  C  C4  1  -0.034000  0.667200  0.311500  1
  C  C5  1  0.371600  0.605200  0.161110  1
  C  C6  1  0.324000  1.050400  0.304400  1
  C  C7  1  0.056000  1.015000  0.385400  1
  C  C8  1  0.479000  0.608600  0.406400  1
  C  C9  1  0.233000  0.678000  0.496800  1
  C  C10  1  -0.076000  0.481000  0.290900  1
  C  C11  1  -0.123200  0.736100  0.242900  1
  C  C12  1  0.439900  0.551100  0.081120  1
  C  C13  1  0.397900  0.383700  0.040540  1
  C  C14  1  0.542900  0.668600  0.042520  1
  C  C15  1  0.298800  0.264100  0.079990  1
  C  C16  1  0.457100  0.331400  -0.042520  1
  C  C17  1  0.602100  0.616300  -0.040540  1
  C  C18  1  0.586700  0.835900  0.084060  1
  C  C19  1  0.260800  0.102300  0.039130  1
  C  C20  1  0.560100  0.448900  -0.081120  1
  C  C21  1  0.413300  0.164100  -0.084060  1
  C  C22  1  0.701200  0.735900  -0.079990  1
  C  C23  1  0.683800  0.948900  0.044610  1
  C  C24  1  0.316200  0.051100  -0.044610  1
  C  C25  1  0.628400  0.394800  -0.161110  1
  C  C26  1  0.739200  0.897700  -0.039130  1
  C  C27  1  0.738000  1.120700  0.075500  1
  C  C28  1  0.262000  -0.120700  -0.075500  1
  C  C29  1  0.171800  -0.198800  -0.018400  1
  C  C30  1  0.692100  0.346500  -0.226740  1
  C  C31  1  0.828200  1.198800  0.018400  1
  C  C32  1  0.105400  -0.366800  -0.024600  1
  C  C33  1  0.894600  1.366800  0.024600  1
  C  C34  1  0.833000  0.057400  -0.317800  1
  C  C35  1  0.680000  0.300000  -0.413200  1
  C  C36  1  1.034000  0.332800  -0.311500  1
  C  C37  1  0.676000  -0.050400  -0.304400  1
  C  C38  1  0.944000  -0.015000  -0.385400  1
  C  C39  1  0.521000  0.391400  -0.406400  1
  C  C40  1  0.767000  0.322000  -0.496800  1
  C  C41  1  1.076000  0.519000  -0.290900  1
  C  C42  1  1.123200  0.263900  -0.242900  1
  H  H43  1  0.089300  0.927600  0.264100  1
  H  H44  1  0.386600  0.815200  0.432600  1
  H  H45  1  -0.084900  0.707600  0.366600  1
  H  H46  1  0.386500  0.993700  0.258000  1
  H  H47  1  0.404200  1.080100  0.356500  1
  H  H48  1  0.289400  1.151500  0.289400  1
  H  H49  1  -0.049900  0.934100  0.389100  1
  H  H50  1  0.017800  1.115900  0.371300  1
  H  H51  1  0.127300  1.044300  0.440100  1
  H  H52  1  0.534200  0.618000  0.353000  1
  H  H53  1  0.439300  0.491100  0.407400  1
  H  H54  1  0.567200  0.657400  0.454500  1
  H  H55  1  0.128500  0.736700  0.502200  1
  H  H56  1  0.320100  0.724100  0.545300  1
  H  H57  1  0.193400  0.559400  0.495500  1
  H  H58  1  -0.017200  0.435100  0.334900  1
  H  H59  1  -0.032400  0.439500  0.235600  1
  H  H60  1  -0.206400  0.446700  0.289000  1
  H  H61  1  -0.096800  0.857900  0.256100  1
  H  H62  1  -0.253500  0.700600  0.240100  1
  H  H63  1  -0.077500  0.694600  0.188000  1
  H  H64  1  0.258900  0.296800  0.135100  1
  H  H65  1  0.549000  0.870600  0.139400  1
  H  H66  1  0.451000  0.129400  -0.139400  1
  H  H67  1  0.741100  0.703200  -0.135100  1
  H  H68  1  0.714300  1.176300  0.130300  1
  H  H69  1  0.285700  -0.176300  -0.130300  1
  H  H70  1  0.910700  0.072400  -0.264100  1
  H  H71  1  0.613400  0.184800  -0.432600  1
  H  H72  1  1.084900  0.292400  -0.366600  1
  H  H73  1  0.613500  0.006300  -0.258000  1
  H  H74  1  0.595800  -0.080100  -0.356500  1
  H  H75  1  0.710600  -0.151500  -0.289400  1
  H  H76  1  1.049900  0.065900  -0.389100  1
  H  H77  1  0.982200  -0.115900  -0.371300  1
  H  H78  1  0.872700  -0.044300  -0.440100  1
  H  H79  1  0.465800  0.382000  -0.353000  1
  H  H80  1  0.560700  0.508900  -0.407400  1
  H  H81  1  0.432800  0.342600  -0.454500  1
  H  H82  1  0.871500  0.263300  -0.502200  1
  H  H83  1  0.679900  0.275900  -0.545300  1
  H  H84  1  0.806600  0.440600  -0.495500  1
  H  H85  1  1.017200  0.564900  -0.334900  1
  H  H86  1  1.032400  0.560500  -0.235600  1
  H  H87  1  1.206400  0.553300  -0.289000  1
  H  H88  1  1.096800  0.142100  -0.256100  1
  H  H89  1  1.253500  0.299400  -0.240100  1
  H  H90  1  1.077500  0.305400  -0.188000  1
  O  O91  1  0.016000  -0.425900  0.026600  1
  O  O92  1  0.984000  1.425900  -0.026600  1
  S  S93  1  0.148300  -0.065000  0.075740  1
  S  S94  1  0.851700  1.065000  -0.075740  1
  Si  Si95  1  0.204200  0.730000  0.324030  1.0
  Si  Si96  1  0.795800  0.270000  -0.324030  1
