# generated using pymatgen
data_SiH23(C11F2)2
_symmetry_space_group_name_H-M   'P 1'
_cell_length_a   7.16910000
_cell_length_b   8.54690000
_cell_length_c   17.75630000
_cell_angle_alpha   86.66300000
_cell_angle_beta   82.53100000
_cell_angle_gamma   66.17100000
_symmetry_Int_Tables_number   1
_chemical_formula_structural   SiH23(C11F2)2
_chemical_formula_sum   'Si2 H46 C44 F8'
_cell_volume   986.78276034
_cell_formula_units_Z   2
loop_
 _symmetry_equiv_pos_site_id
 _symmetry_equiv_pos_as_xyz
  1  'x, y, z'
loop_
 _atom_site_type_symbol
 _atom_site_label
 _atom_site_symmetry_multiplicity
 _atom_site_fract_x
 _atom_site_fract_y
 _atom_site_fract_z
 _atom_site_occupancy
  C  C1  1  0.798500  0.332700  0.291600  1
  C  C2  1  0.980500  0.433000  0.143650  1
  C  C3  1  0.673100  0.267700  0.145950  1
  C  C4  1  1.105200  0.050200  0.189360  1
  C  C5  1  0.719700  0.381000  0.354410  1
  C  C6  1  0.815200  0.615400  0.150400  1
  C  C7  1  0.718500  0.240500  0.060170  1
  C  C8  1  1.063000  -0.075600  0.246500  1
  C  C9  1  0.614300  0.440500  0.428310  1
  C  C10  1  0.862000  0.745100  0.097300  1
  C  C11  1  0.538300  0.239800  0.023400  1
  C  C12  1  1.225700  -0.257600  0.239200  1
  C  C13  1  0.604700  0.320600  0.485360  1
  C  C14  1  0.512800  0.618100  0.441940  1
  C  C15  1  0.709500  0.143500  0.474090  1
  C  C16  1  0.487200  0.381900  0.558060  1
  C  C17  1  0.395300  0.679400  0.514640  1
  C  C18  1  0.525200  0.738300  0.386070  1
  C  C19  1  0.702200  0.027200  0.530080  1
  C  C20  1  0.385700  0.559500  0.571690  1
  C  C21  1  0.474800  0.261700  0.613930  1
  C  C22  1  0.290500  0.856500  0.525910  1
  C  C23  1  0.420700  0.911700  0.398200  1
  C  C24  1  0.810900  -0.152700  0.521180  1
  C  C25  1  0.579300  0.088300  0.601800  1
  C  C26  1  0.280300  0.619000  0.645590  1
  C  C27  1  0.297800  0.972800  0.469920  1
  C  C28  1  0.425800  1.035000  0.341310  1
  C  C29  1  0.802900  -0.264400  0.577250  1
  C  C30  1  0.574200  -0.035000  0.658690  1
  C  C31  1  0.201500  0.667300  0.708400  1
  C  C32  1  0.189100  1.152700  0.478820  1
  C  C33  1  0.317300  1.203900  0.352380  1
  C  C34  1  0.682700  -0.203900  0.647620  1
  C  C35  1  0.197100  1.264400  0.422750  1
  C  C36  1  0.019500  0.567000  0.856350  1
  C  C37  1  0.326900  0.732300  0.854050  1
  C  C38  1  -0.105200  0.949800  0.810640  1
  C  C39  1  0.184800  0.384600  0.849600  1
  C  C40  1  0.281500  0.759500  0.939830  1
  C  C41  1  -0.063000  1.075600  0.753500  1
  C  C42  1  0.138000  0.254900  0.902700  1
  C  C43  1  0.461700  0.760200  0.976600  1
  C  C44  1  -0.225700  1.257600  0.760800  1
  F  F45  1  0.923800  -0.211400  0.454120  1
  F  F46  1  0.541200  0.978400  0.274400  1
  F  F47  1  0.904200  -0.433300  0.569610  1
  F  F48  1  0.458800  0.021600  0.725600  1
  F  F49  1  0.076200  1.211400  0.545880  1
  F  F50  1  0.317500  1.318800  0.298050  1
  F  F51  1  0.682500  -0.318800  0.701950  1
  F  F52  1  0.095800  1.433300  0.430390  1
  H  H53  1  1.100600  0.428500  0.166000  1
  H  H54  1  1.023200  0.404400  0.089700  1
  H  H55  1  0.634100  0.176900  0.169300  1
  H  H56  1  0.555500  0.377000  0.156400  1
  H  H57  1  1.129300  0.003500  0.138200  1
  H  H58  1  1.231200  0.060000  0.199400  1
  H  H59  1  0.685100  0.613800  0.139900  1
  H  H60  1  0.796700  0.653600  0.202800  1
  H  H61  1  0.757300  0.331400  0.036800  1
  H  H62  1  0.836200  0.131300  0.049700  1
  H  H63  1  1.053100  -0.035000  0.298000  1
  H  H64  1  0.929900  -0.076700  0.239900  1
  H  H65  1  0.994400  0.743100  0.104900  1
  H  H66  1  0.756500  0.858600  0.108100  1
  H  H67  1  0.864700  0.716100  0.045000  1
  H  H68  1  0.501000  0.148300  0.045300  1
  H  H69  1  0.577100  0.222000  -0.030800  1
  H  H70  1  0.422000  0.348600  0.032300  1
  H  H71  1  1.226500  -0.303600  0.190400  1
  H  H72  1  1.195000  -0.328000  0.279600  1
  H  H73  1  1.359400  -0.257300  0.242800  1
  H  H74  1  0.786800  0.103400  0.427000  1
  H  H75  1  0.606400  0.699600  0.339500  1
  H  H76  1  0.393600  0.300400  0.660500  1
  H  H77  1  0.213200  0.896600  0.573000  1
  H  H78  1  -0.100600  0.571500  0.834000  1
  H  H79  1  -0.023200  0.595600  0.910300  1
  H  H80  1  0.365900  0.823100  0.830700  1
  H  H81  1  0.444500  0.623000  0.843600  1
  H  H82  1  -0.129300  0.996500  0.861800  1
  H  H83  1  -0.231200  0.940000  0.800600  1
  H  H84  1  0.314900  0.386200  0.860100  1
  H  H85  1  0.203300  0.346400  0.797200  1
  H  H86  1  0.242700  0.668600  0.963200  1
  H  H87  1  0.163800  0.868700  0.950300  1
  H  H88  1  -0.053100  1.035000  0.702000  1
  H  H89  1  0.070100  1.076700  0.760100  1
  H  H90  1  0.005600  0.256900  0.895100  1
  H  H91  1  0.243500  0.141400  0.891900  1
  H  H92  1  0.135300  0.283900  0.955000  1
  H  H93  1  0.499000  0.851700  0.954700  1
  H  H94  1  0.422900  0.778000  1.030800  1
  H  H95  1  0.578000  0.651400  0.967700  1
  H  H96  1  -0.226500  1.303600  0.809600  1
  H  H97  1  -0.195000  1.328000  0.720400  1
  H  H98  1  -0.359400  1.257300  0.757200  1
  Si  Si99  1  0.894110  0.268550  0.191400  1.0
  Si  Si100  1  0.105890  0.731450  0.808600  1
