# generated using pymatgen
data_Si(H13C10)2
_symmetry_space_group_name_H-M   'P 1'
_cell_length_a   14.22100000
_cell_length_b   15.13300000
_cell_length_c   16.84500000
_cell_angle_alpha   90.00000000
_cell_angle_beta   90.00000000
_cell_angle_gamma   90.00000000
_symmetry_Int_Tables_number   1
_chemical_formula_structural   Si(H13C10)2
_chemical_formula_sum   'Si8 H208 C160'
_cell_volume   3625.15169008
_cell_formula_units_Z   8
loop_
 _symmetry_equiv_pos_site_id
 _symmetry_equiv_pos_as_xyz
  1  'x, y, z'
loop_
 _atom_site_type_symbol
 _atom_site_label
 _atom_site_symmetry_multiplicity
 _atom_site_fract_x
 _atom_site_fract_y
 _atom_site_fract_z
 _atom_site_occupancy
  C  C1  1  0.794500  0.667400  0.568400  1
  C  C2  1  0.902600  0.825200  0.511500  1
  C  C3  1  0.990900  0.693500  0.632700  1
  C  C4  1  0.824400  0.814600  0.681400  1
  C  C5  1  0.732700  0.616000  0.548800  1
  C  C6  1  0.945700  0.776400  0.439500  1
  C  C7  1  0.813700  0.874700  0.486700  1
  C  C8  1  1.014900  0.607300  0.589600  1
  C  C9  1  1.077800  0.755800  0.630900  1
  C  C10  1  0.880000  0.895300  0.709400  1
  C  C11  1  0.800000  0.756300  0.752300  1
  C  C12  1  0.658800  0.556400  0.525600  1
  C  C13  1  0.596200  0.523900  0.584600  1
  C  C14  1  0.650300  0.530400  0.446100  1
  C  C15  1  0.605300  0.546500  0.664900  1
  C  C16  1  0.521500  0.465700  0.561200  1
  C  C17  1  0.574600  0.473600  0.421700  1
  C  C18  1  0.714400  0.559100  0.386400  1
  C  C19  1  0.548100  0.511300  0.722800  1
  C  C20  1  0.462500  0.432200  0.620700  1
  C  C21  1  0.510300  0.443400  0.479300  1
  C  C22  1  0.566300  0.450800  0.340300  1
  C  C23  1  0.704600  0.534700  0.309700  1
  C  C24  1  0.560300  0.530900  0.804800  1
  C  C25  1  0.474700  0.451000  0.700100  1
  C  C26  1  0.431400  0.389800  0.456200  1
  C  C27  1  0.629000  0.479500  0.286100  1
  C  C28  1  0.506200  0.491700  0.860600  1
  C  C29  1  0.419400  0.412400  0.760300  1
  C  C30  1  0.362900  0.346800  0.438000  1
  C  C31  1  0.434700  0.430900  0.838600  1
  C  C32  1  0.242800  0.283200  0.302900  1
  C  C33  1  0.263600  0.173400  0.456400  1
  C  C34  1  0.154100  0.351200  0.459000  1
  C  C35  1  0.246400  0.374900  0.264700  1
  C  C36  1  0.154800  0.232300  0.275300  1
  C  C37  1  0.336600  0.117000  0.412600  1
  C  C38  1  0.284300  0.172900  0.545500  1
  C  C39  1  0.065700  0.295000  0.468500  1
  C  C40  1  0.175600  0.398500  0.536400  1
  C  C41  1  0.705500  0.332600  0.068400  1
  C  C42  1  0.597400  0.174800  0.011500  1
  C  C43  1  0.509100  0.306500  0.132700  1
  C  C44  1  0.675600  0.185400  0.181400  1
  C  C45  1  0.767300  0.384000  0.048800  1
  C  C46  1  0.554300  0.223600  -0.060500  1
  C  C47  1  0.686300  0.125300  -0.013300  1
  C  C48  1  0.485100  0.392700  0.089600  1
  C  C49  1  0.422200  0.244200  0.130900  1
  C  C50  1  0.620000  0.104700  0.209400  1
  C  C51  1  0.700000  0.243700  0.252300  1
  C  C52  1  0.841200  0.443600  0.025600  1
  C  C53  1  0.903800  0.476100  0.084600  1
  C  C54  1  0.849700  0.469600  -0.053900  1
  C  C55  1  0.894700  0.453500  0.164900  1
  C  C56  1  0.978500  0.534300  0.061200  1
  C  C57  1  0.925400  0.526400  -0.078300  1
  C  C58  1  0.785600  0.440900  -0.113600  1
  C  C59  1  0.951900  0.488700  0.222800  1
  C  C60  1  1.037500  0.567800  0.120700  1
  C  C61  1  0.989700  0.556600  -0.020700  1
  C  C62  1  0.933700  0.549200  -0.159700  1
  C  C63  1  0.795400  0.465300  -0.190300  1
  C  C64  1  0.939700  0.469100  0.304800  1
  C  C65  1  1.025300  0.549000  0.200100  1
  C  C66  1  1.068600  0.610200  -0.043800  1
  C  C67  1  0.871000  0.520500  -0.213900  1
  C  C68  1  0.993800  0.508300  0.360600  1
  C  C69  1  1.080600  0.587600  0.260300  1
  C  C70  1  1.137100  0.653200  -0.062000  1
  C  C71  1  1.065300  0.569100  0.338600  1
  C  C72  1  1.257200  0.716800  -0.197100  1
  C  C73  1  1.236400  0.826600  -0.043600  1
  C  C74  1  1.345900  0.648800  -0.041000  1
  C  C75  1  1.253600  0.625100  -0.235300  1
  C  C76  1  1.345200  0.767700  -0.224700  1
  C  C77  1  1.163400  0.883000  -0.087400  1
  C  C78  1  1.215700  0.827100  0.045500  1
  C  C79  1  1.434300  0.705000  -0.031500  1
  C  C80  1  1.324400  0.601500  0.036400  1
  C  C81  1  1.294500  -0.167400  0.431600  1
  C  C82  1  1.402600  -0.325200  0.488500  1
  C  C83  1  1.490900  -0.193500  0.367300  1
  C  C84  1  1.324400  -0.314600  0.318600  1
  C  C85  1  1.232700  -0.116000  0.451200  1
  C  C86  1  1.445700  -0.276400  0.560500  1
  C  C87  1  1.313700  -0.374700  0.513300  1
  C  C88  1  1.514900  -0.107300  0.410400  1
  C  C89  1  1.577800  -0.255800  0.369100  1
  C  C90  1  1.380000  -0.395300  0.290600  1
  C  C91  1  1.300000  -0.256300  0.247700  1
  C  C92  1  1.158800  -0.056400  0.474400  1
  C  C93  1  1.096200  -0.023900  0.415400  1
  C  C94  1  1.150300  -0.030400  0.553900  1
  C  C95  1  1.105300  -0.046500  0.335100  1
  C  C96  1  1.021500  0.034300  0.438800  1
  C  C97  1  1.074600  0.026400  0.578300  1
  C  C98  1  1.214400  -0.059100  0.613600  1
  C  C99  1  1.048100  -0.011300  0.277200  1
  C  C100  1  0.962500  0.067800  0.379300  1
  C  C101  1  1.010300  0.056600  0.520700  1
  C  C102  1  1.066300  0.049200  0.659700  1
  C  C103  1  1.204600  -0.034700  0.690300  1
  C  C104  1  1.060300  -0.030900  0.195200  1
  C  C105  1  0.974700  0.049000  0.299900  1
  C  C106  1  0.931400  0.110200  0.543800  1
  C  C107  1  1.129000  0.020500  0.713900  1
  C  C108  1  1.006200  0.008300  0.139400  1
  C  C109  1  0.919400  0.087600  0.239700  1
  C  C110  1  0.862900  0.153200  0.562000  1
  C  C111  1  0.934700  0.069100  0.161400  1
  C  C112  1  0.742800  0.216800  0.697100  1
  C  C113  1  0.763600  0.326600  0.543600  1
  C  C114  1  0.654100  0.148800  0.541000  1
  C  C115  1  0.746400  0.125100  0.735300  1
  C  C116  1  0.654800  0.267700  0.724700  1
  C  C117  1  0.836600  0.383000  0.587400  1
  C  C118  1  0.784300  0.327100  0.454500  1
  C  C119  1  0.565700  0.205000  0.531500  1
  C  C120  1  0.675600  0.101500  0.463600  1
  C  C121  1  0.205500  1.167400  0.931600  1
  C  C122  1  0.097400  1.325200  0.988500  1
  C  C123  1  0.009100  1.193500  0.867300  1
  C  C124  1  0.175600  1.314600  0.818600  1
  C  C125  1  0.267300  1.116000  0.951200  1
  C  C126  1  0.054300  1.276400  1.060500  1
  C  C127  1  0.186300  1.374700  1.013300  1
  C  C128  1  -0.014900  1.107300  0.910400  1
  C  C129  1  -0.077800  1.255800  0.869100  1
  C  C130  1  0.120000  1.395300  0.790600  1
  C  C131  1  0.200000  1.256300  0.747700  1
  C  C132  1  0.341200  1.056400  0.974400  1
  C  C133  1  0.403800  1.023900  0.915400  1
  C  C134  1  0.349700  1.030400  1.053900  1
  C  C135  1  0.394700  1.046500  0.835100  1
  C  C136  1  0.478500  0.965700  0.938800  1
  C  C137  1  0.425400  0.973600  1.078300  1
  C  C138  1  0.285600  1.059100  1.113600  1
  C  C139  1  0.451900  1.011300  0.777200  1
  C  C140  1  0.537500  0.932200  0.879300  1
  C  C141  1  0.489700  0.943400  1.020700  1
  C  C142  1  0.433700  0.950800  1.159700  1
  C  C143  1  0.295400  1.034700  1.190300  1
  C  C144  1  0.439700  1.030900  0.695200  1
  C  C145  1  0.525300  0.951000  0.799900  1
  C  C146  1  0.568600  0.889800  1.043800  1
  C  C147  1  0.371000  0.979500  1.213900  1
  C  C148  1  0.493800  0.991700  0.639400  1
  C  C149  1  0.580600  0.912400  0.739700  1
  C  C150  1  0.637100  0.846800  1.062000  1
  C  C151  1  0.565300  0.930900  0.661400  1
  C  C152  1  0.757200  0.783200  1.197100  1
  C  C153  1  0.736400  0.673400  1.043600  1
  C  C154  1  0.845900  0.851200  1.041000  1
  C  C155  1  0.753600  0.874900  1.235300  1
  C  C156  1  0.845200  0.732300  1.224700  1
  C  C157  1  0.663400  0.617000  1.087400  1
  C  C158  1  0.715700  0.672900  0.954500  1
  C  C159  1  0.934300  0.795000  1.031500  1
  C  C160  1  0.824400  0.898500  0.963600  1
  H  H161  1  0.949400  0.870700  0.528600  1
  H  H162  1  0.980400  0.677600  0.689600  1
  H  H163  1  0.763500  0.837300  0.659900  1
  H  H164  1  1.003500  0.746300  0.455900  1
  H  H165  1  0.960200  0.819100  0.397600  1
  H  H166  1  0.900600  0.732800  0.419500  1
  H  H167  1  0.788000  0.906300  0.532600  1
  H  H168  1  0.767000  0.832400  0.467000  1
  H  H169  1  0.829100  0.917100  0.444700  1
  H  H170  1  0.960600  0.567500  0.591400  1
  H  H171  1  1.068700  0.579000  0.615600  1
  H  H172  1  1.030700  0.620200  0.534100  1
  H  H173  1  1.062800  0.810900  0.658800  1
  H  H174  1  1.094400  0.769000  0.575700  1
  H  H175  1  1.131000  0.726800  0.657200  1
  H  H176  1  0.894500  0.933100  0.663800  1
  H  H177  1  0.938700  0.875800  0.734400  1
  H  H178  1  0.842500  0.928600  0.747900  1
  H  H179  1  0.763500  0.705200  0.734200  1
  H  H180  1  0.762900  0.790300  0.790500  1
  H  H181  1  0.858100  0.735800  0.777700  1
  H  H182  1  0.652600  0.587500  0.679900  1
  H  H183  1  0.765300  0.596300  0.400900  1
  H  H184  1  0.411800  0.395000  0.605600  1
  H  H185  1  0.515500  0.414500  0.323600  1
  H  H186  1  0.748700  0.554600  0.271300  1
  H  H187  1  0.607200  0.572100  0.820500  1
  H  H188  1  0.622500  0.462800  0.232000  1
  H  H189  1  0.516100  0.505000  0.915100  1
  H  H190  1  0.370400  0.372700  0.746100  1
  H  H191  1  0.397600  0.403100  0.878300  1
  H  H192  1  0.298600  0.249700  0.282900  1
  H  H193  1  0.201300  0.144100  0.448900  1
  H  H194  1  0.137800  0.398400  0.419800  1
  H  H195  1  0.304000  0.405200  0.281300  1
  H  H196  1  0.191500  0.409300  0.281600  1
  H  H197  1  0.246000  0.368800  0.206800  1
  H  H198  1  0.154600  0.173200  0.299200  1
  H  H199  1  0.155700  0.226800  0.217300  1
  H  H200  1  0.098200  0.264400  0.291700  1
  H  H201  1  0.322000  0.116400  0.355700  1
  H  H202  1  0.334900  0.056500  0.433200  1
  H  H203  1  0.399400  0.142100  0.420800  1
  H  H204  1  0.236700  0.208100  0.573300  1
  H  H205  1  0.346700  0.198200  0.555100  1
  H  H206  1  0.282600  0.112000  0.565300  1
  H  H207  1  0.051800  0.265200  0.418200  1
  H  H208  1  0.012700  0.333000  0.483200  1
  H  H209  1  0.076000  0.250800  0.510000  1
  H  H210  1  0.231700  0.435300  0.529800  1
  H  H211  1  0.186800  0.354900  0.578300  1
  H  H212  1  0.122100  0.435900  0.551200  1
  H  H213  1  0.550600  0.129300  0.028600  1
  H  H214  1  0.519600  0.322400  0.189600  1
  H  H215  1  0.736500  0.162700  0.159900  1
  H  H216  1  0.496500  0.253700  -0.044100  1
  H  H217  1  0.539800  0.180900  -0.102400  1
  H  H218  1  0.599400  0.267200  -0.080500  1
  H  H219  1  0.712000  0.093700  0.032600  1
  H  H220  1  0.733000  0.167600  -0.033000  1
  H  H221  1  0.670900  0.082900  -0.055300  1
  H  H222  1  0.539400  0.432500  0.091400  1
  H  H223  1  0.431300  0.421000  0.115600  1
  H  H224  1  0.469300  0.379800  0.034100  1
  H  H225  1  0.437200  0.189100  0.158800  1
  H  H226  1  0.405600  0.231000  0.075700  1
  H  H227  1  0.369000  0.273200  0.157200  1
  H  H228  1  0.605500  0.066900  0.163800  1
  H  H229  1  0.561300  0.124200  0.234400  1
  H  H230  1  0.657500  0.071400  0.247900  1
  H  H231  1  0.736500  0.294800  0.234200  1
  H  H232  1  0.737100  0.209700  0.290500  1
  H  H233  1  0.641900  0.264200  0.277700  1
  H  H234  1  0.847400  0.412500  0.179900  1
  H  H235  1  0.734700  0.403700  -0.099100  1
  H  H236  1  1.088200  0.605000  0.105600  1
  H  H237  1  0.984500  0.585500  -0.176400  1
  H  H238  1  0.751300  0.445400  -0.228700  1
  H  H239  1  0.892800  0.427900  0.320500  1
  H  H240  1  0.877500  0.537200  -0.268000  1
  H  H241  1  0.983900  0.495000  0.415100  1
  H  H242  1  1.129600  0.627300  0.246100  1
  H  H243  1  1.102400  0.596900  0.378300  1
  H  H244  1  1.201400  0.750300  -0.217100  1
  H  H245  1  1.298700  0.855900  -0.051100  1
  H  H246  1  1.362200  0.601600  -0.080200  1
  H  H247  1  1.196000  0.594800  -0.218700  1
  H  H248  1  1.308500  0.590700  -0.218400  1
  H  H249  1  1.254000  0.631200  -0.293200  1
  H  H250  1  1.345400  0.826800  -0.200800  1
  H  H251  1  1.344300  0.773200  -0.282700  1
  H  H252  1  1.401800  0.735600  -0.208300  1
  H  H253  1  1.178000  0.883600  -0.144300  1
  H  H254  1  1.165100  0.943500  -0.066800  1
  H  H255  1  1.100600  0.857900  -0.079200  1
  H  H256  1  1.263300  0.791900  0.073300  1
  H  H257  1  1.153300  0.801800  0.055100  1
  H  H258  1  1.217400  0.888000  0.065300  1
  H  H259  1  1.448200  0.734800  -0.081800  1
  H  H260  1  1.487300  0.667000  -0.016800  1
  H  H261  1  1.424000  0.749200  0.010000  1
  H  H262  1  1.268300  0.564700  0.029800  1
  H  H263  1  1.313200  0.645100  0.078300  1
  H  H264  1  1.377900  0.564100  0.051200  1
  H  H265  1  1.449400  -0.370700  0.471400  1
  H  H266  1  1.480400  -0.177600  0.310400  1
  H  H267  1  1.263500  -0.337300  0.340100  1
  H  H268  1  1.503500  -0.246300  0.544100  1
  H  H269  1  1.460200  -0.319100  0.602400  1
  H  H270  1  1.400600  -0.232800  0.580500  1
  H  H271  1  1.288000  -0.406300  0.467400  1
  H  H272  1  1.267000  -0.332400  0.533000  1
  H  H273  1  1.329100  -0.417100  0.555300  1
  H  H274  1  1.460600  -0.067500  0.408600  1
  H  H275  1  1.568700  -0.079000  0.384400  1
  H  H276  1  1.530700  -0.120200  0.465900  1
  H  H277  1  1.562800  -0.310900  0.341200  1
  H  H278  1  1.594400  -0.269000  0.424300  1
  H  H279  1  1.631000  -0.226800  0.342800  1
  H  H280  1  1.394500  -0.433100  0.336200  1
  H  H281  1  1.438700  -0.375800  0.265600  1
  H  H282  1  1.342500  -0.428600  0.252100  1
  H  H283  1  1.263500  -0.205200  0.265800  1
  H  H284  1  1.262900  -0.290300  0.209500  1
  H  H285  1  1.358100  -0.235800  0.222300  1
  H  H286  1  1.152600  -0.087500  0.320100  1
  H  H287  1  1.265300  -0.096300  0.599100  1
  H  H288  1  0.911800  0.105000  0.394400  1
  H  H289  1  1.015500  0.085500  0.676400  1
  H  H290  1  1.248700  -0.054600  0.728700  1
  H  H291  1  1.107200  -0.072100  0.179500  1
  H  H292  1  1.122500  0.037200  0.768000  1
  H  H293  1  1.016100  -0.005000  0.084900  1
  H  H294  1  0.870400  0.127300  0.253900  1
  H  H295  1  0.897600  0.096900  0.121700  1
  H  H296  1  0.798600  0.250300  0.717100  1
  H  H297  1  0.701300  0.355900  0.551100  1
  H  H298  1  0.637800  0.101600  0.580200  1
  H  H299  1  0.804000  0.094800  0.718700  1
  H  H300  1  0.691500  0.090700  0.718400  1
  H  H301  1  0.746000  0.131200  0.793200  1
  H  H302  1  0.654600  0.326800  0.700800  1
  H  H303  1  0.655700  0.273200  0.782700  1
  H  H304  1  0.598200  0.235600  0.708300  1
  H  H305  1  0.822000  0.383600  0.644300  1
  H  H306  1  0.834900  0.443500  0.566800  1
  H  H307  1  0.899400  0.357900  0.579200  1
  H  H308  1  0.736700  0.291900  0.426700  1
  H  H309  1  0.846700  0.301800  0.444900  1
  H  H310  1  0.782600  0.388000  0.434700  1
  H  H311  1  0.551800  0.234800  0.581800  1
  H  H312  1  0.512700  0.167000  0.516800  1
  H  H313  1  0.576000  0.249200  0.490000  1
  H  H314  1  0.731700  0.064700  0.470200  1
  H  H315  1  0.686800  0.145100  0.421700  1
  H  H316  1  0.622100  0.064100  0.448800  1
  H  H317  1  0.050600  1.370700  0.971400  1
  H  H318  1  0.019600  1.177600  0.810400  1
  H  H319  1  0.236500  1.337300  0.840100  1
  H  H320  1  -0.003500  1.246300  1.044100  1
  H  H321  1  0.039800  1.319100  1.102400  1
  H  H322  1  0.099400  1.232800  1.080500  1
  H  H323  1  0.212000  1.406300  0.967400  1
  H  H324  1  0.233000  1.332400  1.033000  1
  H  H325  1  0.170900  1.417100  1.055300  1
  H  H326  1  0.039400  1.067500  0.908600  1
  H  H327  1  -0.068700  1.079000  0.884400  1
  H  H328  1  -0.030700  1.120200  0.965900  1
  H  H329  1  -0.062800  1.310900  0.841200  1
  H  H330  1  -0.094400  1.269000  0.924300  1
  H  H331  1  -0.131000  1.226800  0.842800  1
  H  H332  1  0.105500  1.433100  0.836200  1
  H  H333  1  0.061300  1.375800  0.765600  1
  H  H334  1  0.157500  1.428600  0.752100  1
  H  H335  1  0.236500  1.205200  0.765800  1
  H  H336  1  0.237100  1.290300  0.709500  1
  H  H337  1  0.141900  1.235800  0.722300  1
  H  H338  1  0.347400  1.087500  0.820100  1
  H  H339  1  0.234700  1.096300  1.099100  1
  H  H340  1  0.588200  0.895000  0.894400  1
  H  H341  1  0.484500  0.914500  1.176400  1
  H  H342  1  0.251300  1.054600  1.228700  1
  H  H343  1  0.392800  1.072100  0.679500  1
  H  H344  1  0.377500  0.962800  1.268000  1
  H  H345  1  0.483900  1.005000  0.584900  1
  H  H346  1  0.629600  0.872700  0.753900  1
  H  H347  1  0.602400  0.903100  0.621700  1
  H  H348  1  0.701400  0.749700  1.217100  1
  H  H349  1  0.798700  0.644100  1.051100  1
  H  H350  1  0.862200  0.898400  1.080200  1
  H  H351  1  0.696000  0.905200  1.218700  1
  H  H352  1  0.808500  0.909300  1.218400  1
  H  H353  1  0.754000  0.868800  1.293200  1
  H  H354  1  0.845400  0.673200  1.200800  1
  H  H355  1  0.844300  0.726800  1.282700  1
  H  H356  1  0.901800  0.764400  1.208300  1
  H  H357  1  0.678000  0.616400  1.144300  1
  H  H358  1  0.665100  0.556500  1.066800  1
  H  H359  1  0.600600  0.642100  1.079200  1
  H  H360  1  0.763300  0.708100  0.926700  1
  H  H361  1  0.653300  0.698200  0.944900  1
  H  H362  1  0.717400  0.612000  0.934700  1
  H  H363  1  0.948200  0.765200  1.081800  1
  H  H364  1  0.987300  0.833000  1.016800  1
  H  H365  1  0.924000  0.750800  0.990000  1
  H  H366  1  0.768300  0.935300  0.970200  1
  H  H367  1  0.813200  0.854900  0.921700  1
  H  H368  1  0.877900  0.935900  0.948800  1
  Si  Si369  1  0.882050  0.750820  0.598490  1.0
  Si  Si370  1  0.253350  0.287420  0.414170  1
  Si  Si371  1  0.617950  0.249180  0.098490  1.0
  Si  Si372  1  1.246650  0.712580  -0.085830  1
  Si  Si373  1  1.382050  -0.250820  0.401510  1.0
  Si  Si374  1  0.753350  0.212580  0.585830  1
  Si  Si375  1  0.117950  1.250820  0.901510  1.0
  Si  Si376  1  0.746650  0.787420  1.085830  1
