# generated using pymatgen
data_SiH26C22F
_symmetry_space_group_name_H-M   'P 1'
_cell_length_a   7.44360000
_cell_length_b   7.69060000
_cell_length_c   16.82400000
_cell_angle_alpha   89.06000000
_cell_angle_beta   78.62000000
_cell_angle_gamma   85.09300000
_symmetry_Int_Tables_number   1
_chemical_formula_structural   SiH26C22F
_chemical_formula_sum   'Si2 H52 C44 F2'
_cell_volume   940.70738716
_cell_formula_units_Z   2
loop_
 _symmetry_equiv_pos_site_id
 _symmetry_equiv_pos_as_xyz
  1  'x, y, z'
loop_
 _atom_site_type_symbol
 _atom_site_label
 _atom_site_symmetry_multiplicity
 _atom_site_fract_x
 _atom_site_fract_y
 _atom_site_fract_z
 _atom_site_occupancy
  C  C1  1  0.664000  0.690300  0.274760  1
  C  C2  1  0.680000  1.030900  0.185420  1
  C  C3  1  0.645200  0.690300  0.099910  1
  C  C4  1  1.011700  0.754600  0.159890  1
  C  C5  1  0.611900  0.628900  0.340530  1
  C  C6  1  0.756600  1.119300  0.251070  1
  C  C7  1  0.471400  1.064200  0.200400  1
  C  C8  1  0.678900  0.779500  0.017470  1
  C  C9  1  0.692200  0.494400  0.090630  1
  C  C10  1  1.105900  0.842500  0.084230  1
  C  C11  1  1.087100  0.571800  0.168500  1
  C  C12  1  0.553400  0.560800  0.419830  1
  C  C13  1  0.680200  0.454100  0.455430  1
  C  C14  1  0.373900  0.606400  0.462960  1
  C  C15  1  0.859200  0.408600  0.413160  1
  C  C16  1  0.626100  0.393600  0.537040  1
  C  C17  1  0.319800  0.545900  0.544570  1
  C  C18  1  0.244800  0.707600  0.427630  1
  C  C19  1  0.984500  0.308100  0.448570  1
  C  C20  1  0.446600  0.439200  0.580170  1
  C  C21  1  0.755200  0.292400  0.572370  1
  C  C22  1  0.140800  0.591400  0.586840  1
  C  C23  1  0.068700  0.750100  0.469540  1
  C  C24  1  1.166800  0.261200  0.407350  1
  C  C25  1  0.931300  0.249900  0.530460  1
  C  C26  1  0.388100  0.371100  0.659470  1
  C  C27  1  0.015500  0.691900  0.551430  1
  C  C28  1  -0.065700  0.852000  0.435050  1
  C  C29  1  1.289900  0.164500  0.441920  1
  C  C30  1  1.065700  0.148000  0.564950  1
  C  C31  1  0.336000  0.309700  0.725240  1
  C  C32  1  -0.166800  0.738800  0.592650  1
  C  C33  1  -0.237200  0.893200  0.477090  1
  C  C34  1  1.237200  0.106800  0.522910  1
  C  C35  1  -0.289900  0.835500  0.558080  1
  C  C36  1  0.320000  -0.030900  0.814580  1
  C  C37  1  0.354800  0.309700  0.900090  1
  C  C38  1  -0.011700  0.245400  0.840110  1
  C  C39  1  0.243400  -0.119300  0.748930  1
  C  C40  1  0.528600  -0.064200  0.799600  1
  C  C41  1  0.321100  0.220500  0.982530  1
  C  C42  1  0.307800  0.505600  0.909370  1
  C  C43  1  -0.105900  0.157500  0.915770  1
  C  C44  1  -0.087100  0.428200  0.831500  1
  F  F45  1  1.215900  0.326100  0.331870  1
  F  F46  1  -0.215900  0.673900  0.668130  1
  H  H47  1  0.730600  1.085900  0.132400  1
  H  H48  1  0.509500  0.706800  0.121000  1
  H  H49  1  1.045800  0.818700  0.205300  1
  H  H50  1  0.709600  1.242500  0.255400  1
  H  H51  1  0.891200  1.110800  0.236600  1
  H  H52  1  0.718100  1.061300  0.303200  1
  H  H53  1  0.417300  1.007300  0.251000  1
  H  H54  1  0.425500  1.016700  0.155200  1
  H  H55  1  0.437100  1.190100  0.204600  1
  H  H56  1  0.809300  0.760000  -0.007800  1
  H  H57  1  0.644900  0.905000  0.024400  1
  H  H58  1  0.604300  0.730800  -0.017200  1
  H  H59  1  0.613700  0.446400  0.057500  1
  H  H60  1  0.671700  0.439300  0.144200  1
  H  H61  1  0.821500  0.471200  0.064200  1
  H  H62  1  1.066500  0.967500  0.086700  1
  H  H63  1  1.073100  0.791100  0.036700  1
  H  H64  1  1.239400  0.826000  0.080100  1
  H  H65  1  1.216700  0.570300  0.172600  1
  H  H66  1  1.076800  0.504100  0.121000  1
  H  H67  1  1.017600  0.520300  0.217500  1
  H  H68  1  0.895200  0.447800  0.359000  1
  H  H69  1  0.279700  0.747800  0.373500  1
  H  H70  1  0.720300  0.252200  0.626500  1
  H  H71  1  0.104800  0.552200  0.641000  1
  H  H72  1  -0.033300  0.891900  0.380800  1
  H  H73  1  1.410900  0.135200  0.412300  1
  H  H74  1  1.033300  0.108100  0.619200  1
  H  H75  1  -0.323400  0.961400  0.452300  1
  H  H76  1  1.323400  0.038600  0.547700  1
  H  H77  1  -0.410900  0.864800  0.587700  1
  H  H78  1  0.269400  -0.085900  0.867600  1
  H  H79  1  0.490500  0.293200  0.879000  1
  H  H80  1  -0.045800  0.181300  0.794700  1
  H  H81  1  0.290400  -0.242500  0.744600  1
  H  H82  1  0.108800  -0.110800  0.763400  1
  H  H83  1  0.281900  -0.061300  0.696800  1
  H  H84  1  0.582700  -0.007300  0.749000  1
  H  H85  1  0.574500  -0.016700  0.844800  1
  H  H86  1  0.562900  -0.190100  0.795400  1
  H  H87  1  0.190700  0.240000  1.007800  1
  H  H88  1  0.355100  0.095000  0.975600  1
  H  H89  1  0.395700  0.269200  1.017200  1
  H  H90  1  0.386300  0.553600  0.942500  1
  H  H91  1  0.328300  0.560700  0.855800  1
  H  H92  1  0.178500  0.528800  0.935800  1
  H  H93  1  -0.066500  0.032500  0.913300  1
  H  H94  1  -0.073100  0.208900  0.963300  1
  H  H95  1  -0.239400  0.174000  0.919900  1
  H  H96  1  -0.216700  0.429700  0.827400  1
  H  H97  1  -0.076800  0.495900  0.879000  1
  H  H98  1  -0.017600  0.479700  0.782500  1
  Si  Si99  1  0.754650  0.791400  0.177090  1.0
  Si  Si100  1  0.245350  0.208600  0.822910  1
