# generated using pymatgen
data_SiH24C20SF
_symmetry_space_group_name_H-M   'P 1'
_cell_length_a   7.57660000
_cell_length_b   8.17960000
_cell_length_c   16.15030000
_cell_angle_alpha   100.84600000
_cell_angle_beta   92.62100000
_cell_angle_gamma   98.79000000
_symmetry_Int_Tables_number   1
_chemical_formula_structural   SiH24C20SF
_chemical_formula_sum   'Si2 H48 C40 S2 F2'
_cell_volume   968.60197645
_cell_formula_units_Z   2
loop_
 _symmetry_equiv_pos_site_id
 _symmetry_equiv_pos_as_xyz
  1  'x, y, z'
loop_
 _atom_site_type_symbol
 _atom_site_label
 _atom_site_symmetry_multiplicity
 _atom_site_fract_x
 _atom_site_fract_y
 _atom_site_fract_z
 _atom_site_occupancy
  C  C1  1  0.188700  0.343800  0.272880  1
  C  C2  1  0.226400  0.031000  0.142500  1
  C  C3  1  0.173300  0.355000  0.093300  1
  C  C4  1  0.542100  0.341200  0.188600  1
  C  C5  1  0.127800  0.393100  0.338860  1
  C  C6  1  0.154000  -0.072800  0.205100  1
  C  C7  1  0.348500  -0.059900  0.084900  1
  C  C8  1  -0.020700  0.273700  0.077000  1
  C  C9  1  0.275000  0.315000  0.013600  1
  C  C10  1  0.578000  0.531500  0.204000  1
  C  C11  1  0.617400  0.273500  0.263200  1
  C  C12  1  0.060200  0.447800  0.419300  1
  C  C13  1  0.103400  0.618800  0.459660  1
  C  C14  1  -0.044300  0.328300  0.457320  1
  C  C15  1  0.202500  0.741100  0.420980  1
  C  C16  1  0.044300  0.671700  0.542680  1
  C  C17  1  -0.103400  0.381200  0.540340  1
  C  C18  1  -0.091100  0.156800  0.415850  1
  C  C19  1  0.238900  0.917000  0.470000  1
  C  C20  1  -0.060200  0.552200  0.580700  1
  C  C21  1  0.091100  0.843200  0.584150  1
  C  C22  1  -0.202500  0.258900  0.579020  1
  C  C23  1  -0.181100  0.042200  0.446500  1
  C  C24  1  0.181100  0.957800  0.553500  1
  C  C25  1  -0.127800  0.606900  0.661140  1
  C  C26  1  -0.238900  0.083000  0.530000  1
  C  C27  1  -0.240600  -0.132700  0.422900  1
  C  C28  1  0.240600  1.132700  0.577100  1
  C  C29  1  0.326900  1.210900  0.521300  1
  C  C30  1  -0.188700  0.656200  0.727120  1
  C  C31  1  -0.326900  -0.210900  0.478700  1
  C  C32  1  -0.226400  0.969000  0.857500  1
  C  C33  1  -0.173300  0.645000  0.906700  1
  C  C34  1  -0.542100  0.658800  0.811400  1
  C  C35  1  -0.154000  1.072800  0.794900  1
  C  C36  1  -0.348500  1.059900  0.915100  1
  C  C37  1  0.020700  0.726300  0.923000  1
  C  C38  1  -0.275000  0.685000  0.986400  1
  C  C39  1  -0.578000  0.468500  0.796000  1
  C  C40  1  -0.617400  0.726500  0.736800  1
  F  F41  1  0.399100  1.373000  0.531300  1
  F  F42  1  -0.399100  -0.373000  0.468700  1
  H  H43  1  0.117900  0.021800  0.103200  1
  H  H44  1  0.182200  0.480300  0.111500  1
  H  H45  1  0.596600  0.294400  0.135800  1
  H  H46  1  0.065300  -0.017100  0.236900  1
  H  H47  1  0.252400  -0.083400  0.244300  1
  H  H48  1  0.097400  -0.185200  0.174800  1
  H  H49  1  0.466600  0.010900  0.089500  1
  H  H50  1  0.296900  -0.082400  0.026400  1
  H  H51  1  0.361000  -0.166800  0.101800  1
  H  H52  1  -0.085800  0.311200  0.126300  1
  H  H53  1  -0.029100  0.150700  0.067000  1
  H  H54  1  -0.073300  0.306200  0.027200  1
  H  H55  1  0.400800  0.367800  0.025700  1
  H  H56  1  0.221100  0.358000  -0.032400  1
  H  H57  1  0.267800  0.192100  -0.003200  1
  H  H58  1  0.522000  0.569800  0.156800  1
  H  H59  1  0.707400  0.571100  0.208700  1
  H  H60  1  0.527600  0.577200  0.256600  1
  H  H61  1  0.588600  0.150000  0.251400  1
  H  H62  1  0.563800  0.319100  0.314800  1
  H  H63  1  0.747700  0.308200  0.270700  1
  H  H64  1  0.243800  0.711900  0.366300  1
  H  H65  1  -0.051800  0.125700  0.360900  1
  H  H66  1  0.051800  0.874300  0.639100  1
  H  H67  1  -0.243800  0.288100  0.633700  1
  H  H68  1  -0.220000  -0.193500  0.369000  1
  H  H69  1  0.220000  1.193500  0.631000  1
  H  H70  1  -0.117900  0.978200  0.896800  1
  H  H71  1  -0.182200  0.519700  0.888500  1
  H  H72  1  -0.596600  0.705600  0.864200  1
  H  H73  1  -0.065300  1.017100  0.763100  1
  H  H74  1  -0.252400  1.083400  0.755700  1
  H  H75  1  -0.097400  1.185200  0.825200  1
  H  H76  1  -0.466600  0.989100  0.910500  1
  H  H77  1  -0.296900  1.082400  0.973600  1
  H  H78  1  -0.361000  1.166800  0.898200  1
  H  H79  1  0.085800  0.688800  0.873700  1
  H  H80  1  0.029100  0.849300  0.933000  1
  H  H81  1  0.073300  0.693800  0.972800  1
  H  H82  1  -0.400800  0.632200  0.974300  1
  H  H83  1  -0.221100  0.642000  1.032400  1
  H  H84  1  -0.267800  0.807900  1.003200  1
  H  H85  1  -0.522000  0.430200  0.843200  1
  H  H86  1  -0.707400  0.428900  0.791300  1
  H  H87  1  -0.527600  0.422800  0.743400  1
  H  H88  1  -0.588600  0.850000  0.748600  1
  H  H89  1  -0.563800  0.680900  0.685200  1
  H  H90  1  -0.747700  0.691800  0.729300  1
  S  S91  1  0.356100  1.078000  0.426680  1
  S  S92  1  -0.356100  -0.078000  0.573320  1
  Si  Si93  1  0.293580  0.268050  0.176000  1.0
  Si  Si94  1  -0.293580  0.731950  0.824000  1
