# generated using pymatgen
data_SiH19C17S
_symmetry_space_group_name_H-M   'P 1'
_cell_length_a   17.22710000
_cell_length_b   6.42030000
_cell_length_c   15.57620000
_cell_angle_alpha   90.00000000
_cell_angle_beta   115.80400000
_cell_angle_gamma   90.00000000
_symmetry_Int_Tables_number   1
_chemical_formula_structural   SiH19C17S
_chemical_formula_sum   'Si4 H76 C68 S4'
_cell_volume   1550.99593021
_cell_formula_units_Z   4
loop_
 _symmetry_equiv_pos_site_id
 _symmetry_equiv_pos_as_xyz
  1  'x, y, z'
loop_
 _atom_site_type_symbol
 _atom_site_label
 _atom_site_symmetry_multiplicity
 _atom_site_fract_x
 _atom_site_fract_y
 _atom_site_fract_z
 _atom_site_occupancy
  C  C1  1  0.729550  0.768200  0.547240  1
  C  C2  1  0.829460  1.127300  0.520010  1
  C  C3  1  0.901840  0.680600  0.553400  1
  C  C4  1  0.884560  0.924500  0.712990  1
  C  C5  1  0.659120  0.696200  0.529570  1
  C  C6  1  0.786620  1.120900  0.410960  1
  C  C7  1  0.993360  0.747800  0.575300  1
  C  C8  1  0.888600  0.733600  0.773600  1
  C  C9  1  0.577760  0.603700  0.512830  1
  C  C10  1  0.578020  0.421400  0.561670  1
  C  C11  1  0.497500  0.686800  0.449440  1
  C  C12  1  0.502500  0.313200  0.550560  1
  C  C13  1  0.421980  0.578600  0.438330  1
  C  C14  1  0.477840  0.873300  0.391080  1
  C  C15  1  0.422240  0.396300  0.487170  1
  C  C16  1  0.522160  0.126700  0.608920  1
  C  C17  1  0.611770  0.103600  0.664250  1
  C  C18  1  0.388230  0.896400  0.335750  1
  C  C19  1  0.533240  1.024200  0.383760  1
  C  C20  1  0.340880  0.303800  0.470430  1
  C  C21  1  0.466760  -0.024200  0.616240  1
  C  C22  1  0.645600  -0.062600  0.726940  1
  C  C23  1  0.354400  1.062600  0.273060  1
  C  C24  1  0.498900  1.189200  0.320630  1
  C  C25  1  0.270450  0.231800  0.452760  1
  C  C26  1  0.501100  -0.189200  0.679370  1
  C  C27  1  0.589460  -0.208100  0.734160  1
  C  C28  1  0.410540  1.208100  0.265840  1
  C  C29  1  0.170540  -0.127300  0.479990  1
  C  C30  1  0.098160  0.319400  0.446600  1
  C  C31  1  0.115440  0.075500  0.287010  1
  C  C32  1  0.213380  -0.120900  0.589040  1
  C  C33  1  0.006640  0.252200  0.424700  1
  C  C34  1  0.111400  0.266400  0.226400  1
  C  C35  1  0.270450  0.268200  -0.047240  1
  C  C36  1  0.170540  0.627300  -0.020010  1
  C  C37  1  0.098160  0.180600  -0.053400  1
  C  C38  1  0.115440  0.424500  -0.212990  1
  C  C39  1  0.340880  0.196200  -0.029570  1
  C  C40  1  0.213380  0.620900  0.089040  1
  C  C41  1  0.006640  0.247800  -0.075300  1
  C  C42  1  0.111400  0.233600  -0.273600  1
  C  C43  1  0.422240  0.103700  -0.012830  1
  C  C44  1  0.421980  -0.078600  -0.061670  1
  C  C45  1  0.502500  0.186800  0.050560  1
  C  C46  1  0.497500  -0.186800  -0.050560  1
  C  C47  1  0.578020  0.078600  0.061670  1
  C  C48  1  0.522160  0.373300  0.108920  1
  C  C49  1  0.577760  -0.103700  0.012830  1
  C  C50  1  0.477840  -0.373300  -0.108920  1
  C  C51  1  0.388230  -0.396400  -0.164250  1
  C  C52  1  0.611770  0.396400  0.164250  1
  C  C53  1  0.466760  0.524200  0.116240  1
  C  C54  1  0.659120  -0.196200  0.029570  1
  C  C55  1  0.533240  -0.524200  -0.116240  1
  C  C56  1  0.354400  -0.562600  -0.226940  1
  C  C57  1  0.645600  0.562600  0.226940  1
  C  C58  1  0.501100  0.689200  0.179370  1
  C  C59  1  0.729550  -0.268200  0.047240  1
  C  C60  1  0.498900  -0.689200  -0.179370  1
  C  C61  1  0.410540  -0.708100  -0.234160  1
  C  C62  1  0.589460  0.708100  0.234160  1
  C  C63  1  0.829460  -0.627300  0.020010  1
  C  C64  1  0.901840  -0.180600  0.053400  1
  C  C65  1  0.884560  -0.424500  0.212990  1
  C  C66  1  0.786620  -0.620900  -0.089040  1
  C  C67  1  0.993360  -0.247800  0.075300  1
  C  C68  1  0.888600  -0.233600  0.273600  1
  H  H69  1  0.797000  1.226700  0.540700  1
  H  H70  1  0.888500  1.183600  0.541400  1
  H  H71  1  0.904800  0.551400  0.589400  1
  H  H72  1  0.871200  0.647000  0.484600  1
  H  H73  1  0.943800  0.979200  0.733900  1
  H  H74  1  0.850200  1.033800  0.725500  1
  H  H75  1  0.820500  1.032100  0.388800  1
  H  H76  1  0.783700  1.262200  0.385900  1
  H  H77  1  0.728200  1.064300  0.388300  1
  H  H78  1  0.991500  0.874400  0.539300  1
  H  H79  1  1.022100  0.636500  0.556900  1
  H  H80  1  1.025400  0.775700  0.643700  1
  H  H81  1  0.829900  0.685200  0.757600  1
  H  H82  1  0.917400  0.771000  0.841300  1
  H  H83  1  0.921000  0.622500  0.760600  1
  H  H84  1  0.593700  1.014000  0.421600  1
  H  H85  1  0.406300  -0.014000  0.578400  1
  H  H86  1  0.706100  -0.075900  0.764100  1
  H  H87  1  0.293900  1.075900  0.235900  1
  H  H88  1  0.536500  1.290700  0.314900  1
  H  H89  1  0.463500  -0.290700  0.685100  1
  H  H90  1  0.611600  -0.321900  0.777000  1
  H  H91  1  0.388400  1.321900  0.223000  1
  H  H92  1  0.203000  -0.226700  0.459300  1
  H  H93  1  0.111500  -0.183600  0.458600  1
  H  H94  1  0.095200  0.448600  0.410600  1
  H  H95  1  0.128800  0.353000  0.515400  1
  H  H96  1  0.056200  0.020800  0.266100  1
  H  H97  1  0.149800  -0.033800  0.274500  1
  H  H98  1  0.179500  -0.032100  0.611200  1
  H  H99  1  0.216300  -0.262200  0.614100  1
  H  H100  1  0.271800  -0.064300  0.611700  1
  H  H101  1  0.008500  0.125600  0.460700  1
  H  H102  1  -0.022100  0.363500  0.443100  1
  H  H103  1  -0.025400  0.224300  0.356300  1
  H  H104  1  0.170100  0.314800  0.242400  1
  H  H105  1  0.082600  0.229000  0.158700  1
  H  H106  1  0.079000  0.377500  0.239400  1
  H  H107  1  0.203000  0.726700  -0.040700  1
  H  H108  1  0.111500  0.683600  -0.041400  1
  H  H109  1  0.095200  0.051400  -0.089400  1
  H  H110  1  0.128800  0.147000  0.015400  1
  H  H111  1  0.056200  0.479200  -0.233900  1
  H  H112  1  0.149800  0.533800  -0.225500  1
  H  H113  1  0.179500  0.532100  0.111200  1
  H  H114  1  0.216300  0.762200  0.114100  1
  H  H115  1  0.271800  0.564300  0.111700  1
  H  H116  1  0.008500  0.374400  -0.039300  1
  H  H117  1  -0.022100  0.136500  -0.056900  1
  H  H118  1  -0.025400  0.275700  -0.143700  1
  H  H119  1  0.170100  0.185200  -0.257600  1
  H  H120  1  0.082600  0.271000  -0.341300  1
  H  H121  1  0.079000  0.122500  -0.260600  1
  H  H122  1  0.406300  0.514000  0.078400  1
  H  H123  1  0.593700  -0.514000  -0.078400  1
  H  H124  1  0.293900  -0.575900  -0.264100  1
  H  H125  1  0.706100  0.575900  0.264100  1
  H  H126  1  0.463500  0.790700  0.185100  1
  H  H127  1  0.536500  -0.790700  -0.185100  1
  H  H128  1  0.388400  -0.821900  -0.277000  1
  H  H129  1  0.611600  0.821900  0.277000  1
  H  H130  1  0.797000  -0.726700  0.040700  1
  H  H131  1  0.888500  -0.683600  0.041400  1
  H  H132  1  0.904800  -0.051400  0.089400  1
  H  H133  1  0.871200  -0.147000  -0.015400  1
  H  H134  1  0.943800  -0.479200  0.233900  1
  H  H135  1  0.850200  -0.533800  0.225500  1
  H  H136  1  0.820500  -0.532100  -0.111200  1
  H  H137  1  0.783700  -0.762200  -0.114100  1
  H  H138  1  0.728200  -0.564300  -0.111700  1
  H  H139  1  0.991500  -0.374400  0.039300  1
  H  H140  1  1.022100  -0.136500  0.056900  1
  H  H141  1  1.025400  -0.275700  0.143700  1
  H  H142  1  0.829900  -0.185200  0.257600  1
  H  H143  1  0.917400  -0.271000  0.341300  1
  H  H144  1  0.921000  -0.122500  0.260600  1
  S  S145  1  0.671910  0.300290  0.644040  1
  S  S146  1  0.328090  0.699710  0.355960  1
  S  S147  1  0.328090  -0.199710  -0.144040  1
  S  S148  1  0.671910  0.199710  0.144040  1
  Si  Si149  1  0.837280  0.876350  0.582530  1.0
  Si  Si150  1  0.162720  0.123650  0.417470  1
  Si  Si151  1  0.162720  0.376350  -0.082530  1.0
  Si  Si152  1  0.837280  -0.376350  0.082530  1
