# generated using pymatgen
data_Si2H74C54S2O
_symmetry_space_group_name_H-M   'P 1'
_cell_length_a   12.18610000
_cell_length_b   13.17440000
_cell_length_c   17.60420000
_cell_angle_alpha   100.07860000
_cell_angle_beta   110.04230000
_cell_angle_gamma   99.20750000
_symmetry_Int_Tables_number   1
_chemical_formula_structural   Si2H74C54S2O
_chemical_formula_sum   'Si4 H148 C108 S4 O2'
_cell_volume   2539.11627235
_cell_formula_units_Z   2
loop_
 _symmetry_equiv_pos_site_id
 _symmetry_equiv_pos_as_xyz
  1  'x, y, z'
loop_
 _atom_site_type_symbol
 _atom_site_label
 _atom_site_symmetry_multiplicity
 _atom_site_fract_x
 _atom_site_fract_y
 _atom_site_fract_z
 _atom_site_occupancy
  C  C1  1  0.176300  0.778600  0.241120  1
  C  C2  1  0.266000  0.656800  0.124010  1
  C  C3  1  0.428300  0.755500  0.320380  1
  C  C4  1  0.198000  0.559100  0.261610  1
  C  C5  1  0.117400  0.843500  0.245410  1
  C  C6  1  0.145300  0.583900  0.062160  1
  C  C7  1  0.277000  0.760500  0.094730  1
  C  C8  1  0.365400  0.603300  0.114820  1
  C  C9  1  0.491000  0.840600  0.289300  1
  C  C10  1  0.511700  0.679500  0.342600  1
  C  C11  1  0.419000  0.815100  0.400200  1
  C  C12  1  0.248200  0.463000  0.239700  1
  C  C13  1  0.220100  0.581100  0.355400  1
  C  C14  1  0.061000  0.528900  0.214400  1
  C  C15  1  0.048600  0.921400  0.250790  1
  C  C16  1  -0.015100  0.921300  0.305220  1
  C  C17  1  0.046000  0.997000  0.203430  1
  C  C18  1  -0.012500  0.847700  0.354000  1
  C  C19  1  -0.083600  1.000200  0.311080  1
  C  C20  1  -0.024200  1.074700  0.208260  1
  C  C21  1  0.111900  0.998800  0.150730  1
  C  C22  1  -0.072000  0.849200  0.408920  1
  C  C23  1  -0.142400  1.001800  0.367080  1
  C  C24  1  -0.089800  1.073600  0.260790  1
  C  C25  1  -0.025600  1.150400  0.160000  1
  C  C26  1  0.108100  1.071600  0.105020  1
  C  C27  1  -0.068900  0.775500  0.459330  1
  C  C28  1  -0.137300  0.930500  0.416780  1
  C  C29  1  -0.166300  1.145300  0.262260  1
  C  C30  1  0.038800  1.149100  0.109360  1
  C  C31  1  0.165900  1.077600  0.045500  1
  C  C32  1  -0.124100  0.779800  0.513480  1
  C  C33  1  -0.193900  0.934300  0.475720  1
  C  C34  1  -0.235400  1.202000  0.263400  1
  C  C35  1  0.146400  1.161000  0.011800  1
  C  C36  1  -0.187600  0.860800  0.522890  1
  C  C37  1  -0.237300  0.857500  0.586900  1
  C  C38  1  -0.214100  0.775200  0.621300  1
  C  C39  1  -0.369700  1.346900  0.174520  1
  C  C40  1  -0.252200  1.392700  0.374380  1
  C  C41  1  -0.481000  1.196100  0.269510  1
  C  C42  1  -0.459700  1.266800  0.094040  1
  C  C43  1  -0.252900  1.377000  0.159100  1
  C  C44  1  -0.419800  1.446300  0.185300  1
  C  C45  1  -0.151900  1.473500  0.368400  1
  C  C46  1  -0.334900  1.452200  0.403800  1
  C  C47  1  -0.188000  1.339000  0.442770  1
  C  C48  1  -0.518300  1.092400  0.202100  1
  C  C49  1  -0.457300  1.164000  0.352000  1
  C  C50  1  -0.587900  1.249000  0.252700  1
  C  C51  1  -0.176300  1.221400  0.758880  1
  C  C52  1  -0.266000  1.343200  0.875990  1
  C  C53  1  -0.428300  1.244500  0.679620  1
  C  C54  1  -0.198000  1.440900  0.738390  1
  C  C55  1  -0.117400  1.156500  0.754590  1
  C  C56  1  -0.145300  1.416100  0.937840  1
  C  C57  1  -0.277000  1.239500  0.905270  1
  C  C58  1  -0.365400  1.396700  0.885180  1
  C  C59  1  -0.491000  1.159400  0.710700  1
  C  C60  1  -0.511700  1.320500  0.657400  1
  C  C61  1  -0.419000  1.184900  0.599800  1
  C  C62  1  -0.248200  1.537000  0.760300  1
  C  C63  1  -0.220100  1.418900  0.644600  1
  C  C64  1  -0.061000  1.471100  0.785600  1
  C  C65  1  -0.048600  1.078600  0.749210  1
  C  C66  1  0.015100  1.078700  0.694780  1
  C  C67  1  -0.046000  1.003000  0.796570  1
  C  C68  1  0.012500  1.152300  0.646000  1
  C  C69  1  0.083600  0.999800  0.688920  1
  C  C70  1  0.024200  0.925300  0.791740  1
  C  C71  1  -0.111900  1.001200  0.849270  1
  C  C72  1  0.072000  1.150800  0.591080  1
  C  C73  1  0.142400  0.998200  0.632920  1
  C  C74  1  0.089800  0.926400  0.739210  1
  C  C75  1  0.025600  0.849600  0.840000  1
  C  C76  1  -0.108100  0.928400  0.894980  1
  C  C77  1  0.068900  1.224500  0.540670  1
  C  C78  1  0.137300  1.069500  0.583220  1
  C  C79  1  0.166300  0.854700  0.737740  1
  C  C80  1  -0.038800  0.850900  0.890640  1
  C  C81  1  -0.165900  0.922400  0.954500  1
  C  C82  1  0.124100  1.220200  0.486520  1
  C  C83  1  0.193900  1.065700  0.524280  1
  C  C84  1  0.235400  0.798000  0.736600  1
  C  C85  1  -0.146400  0.839000  0.988200  1
  C  C86  1  0.187600  1.139200  0.477110  1
  C  C87  1  0.237300  1.142500  0.413100  1
  C  C88  1  0.214100  1.224800  0.378700  1
  C  C89  1  0.369700  0.653100  0.825480  1
  C  C90  1  0.252200  0.607300  0.625620  1
  C  C91  1  0.481000  0.803900  0.730490  1
  C  C92  1  0.459700  0.733200  0.905960  1
  C  C93  1  0.252900  0.623000  0.840900  1
  C  C94  1  0.419800  0.553700  0.814700  1
  C  C95  1  0.151900  0.526500  0.631600  1
  C  C96  1  0.334900  0.547800  0.596200  1
  C  C97  1  0.188000  0.661000  0.557230  1
  C  C98  1  0.518300  0.907600  0.797900  1
  C  C99  1  0.457300  0.836000  0.648000  1
  C  C100  1  0.587900  0.751000  0.747300  1
  C  C101  1  0.639100  0.883500  0.122500  1
  C  C102  1  0.643900  0.965000  0.072900  1
  C  C103  1  0.715700  0.737100  0.155300  1
  C  C104  1  0.797400  0.669900  0.138900  1
  C  C105  1  0.360900  0.116500  0.877500  1
  C  C106  1  0.356100  0.035000  0.927100  1
  C  C107  1  0.284300  0.262900  0.844700  1
  C  C108  1  0.202600  0.330100  0.861100  1
  H  H109  1  0.079400  0.614600  0.067600  1
  H  H110  1  0.136900  0.513900  0.074300  1
  H  H111  1  0.142400  0.576700  0.005100  1
  H  H112  1  0.277700  0.745100  0.038400  1
  H  H113  1  0.351800  0.811300  0.133100  1
  H  H114  1  0.208400  0.790800  0.094100  1
  H  H115  1  0.356700  0.535700  0.130800  1
  H  H116  1  0.444200  0.649700  0.151100  1
  H  H117  1  0.358700  0.590100  0.056700  1
  H  H118  1  0.568800  0.878800  0.333333  1
  H  H119  1  0.440600  0.890700  0.274800  1
  H  H120  1  0.503600  0.806500  0.239800  1
  H  H121  1  0.517800  0.641200  0.291800  1
  H  H122  1  0.478600  0.628600  0.368200  1
  H  H123  1  0.591800  0.720500  0.381900  1
  H  H124  1  0.385000  0.764000  0.425300  1
  H  H125  1  0.366700  0.864000  0.386400  1
  H  H126  1  0.499200  0.855300  0.439800  1
  H  H127  1  0.210000  0.402100  0.254300  1
  H  H128  1  0.335300  0.480300  0.271000  1
  H  H129  1  0.231300  0.445300  0.179700  1
  H  H130  1  0.197500  0.647100  0.372200  1
  H  H131  1  0.305400  0.588200  0.388000  1
  H  H132  1  0.171400  0.522200  0.365500  1
  H  H133  1  0.025900  0.467300  0.229900  1
  H  H134  1  0.042000  0.511200  0.154200  1
  H  H135  1  0.027500  0.588800  0.229100  1
  H  H136  1  0.031400  0.795000  0.349500  1
  H  H137  1  0.159000  0.948400  0.147600  1
  H  H138  1  -0.187300  1.053700  0.371100  1
  H  H139  1  -0.071100  1.202200  0.162700  1
  H  H140  1  -0.026600  0.721700  0.454500  1
  H  H141  1  0.211000  1.029700  0.032200  1
  H  H142  1  -0.236000  0.987800  0.482400  1
  H  H143  1  0.181000  1.180500  -0.025900  1
  H  H144  1  -0.280100  0.906200  0.602400  1
  H  H145  1  -0.241700  0.758800  0.663000  1
  H  H146  1  -0.468800  1.298400  0.046500  1
  H  H147  1  -0.537800  1.248300  0.098800  1
  H  H148  1  -0.429900  1.202600  0.085500  1
  H  H149  1  -0.222600  1.313500  0.148900  1
  H  H150  1  -0.192500  1.429500  0.208200  1
  H  H151  1  -0.269500  1.407100  0.110400  1
  H  H152  1  -0.359500  1.502300  0.232100  1
  H  H153  1  -0.493000  1.428700  0.196600  1
  H  H154  1  -0.438700  1.471300  0.134100  1
  H  H155  1  -0.187500  1.515600  0.330000  1
  H  H156  1  -0.100700  1.435900  0.347600  1
  H  H157  1  -0.103400  1.520500  0.423700  1
  H  H158  1  -0.287000  1.504700  0.456800  1
  H  H159  1  -0.395800  1.401500  0.411600  1
  H  H160  1  -0.374500  1.488300  0.361700  1
  H  H161  1  -0.139700  1.393300  0.494600  1
  H  H162  1  -0.135500  1.300100  0.424700  1
  H  H163  1  -0.248100  1.289500  0.452300  1
  H  H164  1  -0.453600  1.054700  0.214500  1
  H  H165  1  -0.533500  1.108300  0.147500  1
  H  H166  1  -0.591600  1.047700  0.201000  1
  H  H167  1  -0.527800  1.111700  0.347300  1
  H  H168  1  -0.441600  1.226800  0.396800  1
  H  H169  1  -0.387200  1.132800  0.364900  1
  H  H170  1  -0.657500  1.200600  0.253200  1
  H  H171  1  -0.608100  1.265400  0.198100  1
  H  H172  1  -0.566200  1.314700  0.296200  1
  H  H173  1  -0.079400  1.385400  0.932400  1
  H  H174  1  -0.136900  1.486100  0.925700  1
  H  H175  1  -0.142400  1.423300  0.994900  1
  H  H176  1  -0.277700  1.254900  0.961600  1
  H  H177  1  -0.351800  1.188700  0.866900  1
  H  H178  1  -0.208400  1.209200  0.905900  1
  H  H179  1  -0.356700  1.464300  0.869200  1
  H  H180  1  -0.444200  1.350300  0.848900  1
  H  H181  1  -0.358700  1.409900  0.943300  1
  H  H182  1  -0.568800  1.121200  0.666667  1
  H  H183  1  -0.440600  1.109300  0.725200  1
  H  H184  1  -0.503600  1.193500  0.760200  1
  H  H185  1  -0.517800  1.358800  0.708200  1
  H  H186  1  -0.478600  1.371400  0.631800  1
  H  H187  1  -0.591800  1.279500  0.618100  1
  H  H188  1  -0.385000  1.236000  0.574700  1
  H  H189  1  -0.366700  1.136000  0.613600  1
  H  H190  1  -0.499200  1.144700  0.560200  1
  H  H191  1  -0.210000  1.597900  0.745700  1
  H  H192  1  -0.335300  1.519700  0.729000  1
  H  H193  1  -0.231300  1.554700  0.820300  1
  H  H194  1  -0.197500  1.352900  0.627800  1
  H  H195  1  -0.305400  1.411800  0.612000  1
  H  H196  1  -0.171400  1.477800  0.634500  1
  H  H197  1  -0.025900  1.532700  0.770100  1
  H  H198  1  -0.042000  1.488800  0.845800  1
  H  H199  1  -0.027500  1.411200  0.770900  1
  H  H200  1  -0.031400  1.205000  0.650500  1
  H  H201  1  -0.159000  1.051600  0.852400  1
  H  H202  1  0.187300  0.946300  0.628900  1
  H  H203  1  0.071100  0.797800  0.837300  1
  H  H204  1  0.026600  1.278300  0.545500  1
  H  H205  1  -0.211000  0.970300  0.967800  1
  H  H206  1  0.236000  1.012200  0.517600  1
  H  H207  1  -0.181000  0.819500  1.025900  1
  H  H208  1  0.280100  1.093800  0.397600  1
  H  H209  1  0.241700  1.241200  0.337000  1
  H  H210  1  0.468800  0.701600  0.953500  1
  H  H211  1  0.537800  0.751700  0.901200  1
  H  H212  1  0.429900  0.797400  0.914500  1
  H  H213  1  0.222600  0.686500  0.851100  1
  H  H214  1  0.192500  0.570500  0.791800  1
  H  H215  1  0.269500  0.592900  0.889600  1
  H  H216  1  0.359500  0.497700  0.767900  1
  H  H217  1  0.493000  0.571300  0.803400  1
  H  H218  1  0.438700  0.528700  0.865900  1
  H  H219  1  0.187500  0.484400  0.670000  1
  H  H220  1  0.100700  0.564100  0.652400  1
  H  H221  1  0.103400  0.479500  0.576300  1
  H  H222  1  0.287000  0.495300  0.543200  1
  H  H223  1  0.395800  0.598500  0.588400  1
  H  H224  1  0.374500  0.511700  0.638300  1
  H  H225  1  0.139700  0.606700  0.505400  1
  H  H226  1  0.135500  0.699900  0.575300  1
  H  H227  1  0.248100  0.710500  0.547700  1
  H  H228  1  0.453600  0.945300  0.785500  1
  H  H229  1  0.533500  0.891700  0.852500  1
  H  H230  1  0.591600  0.952300  0.799000  1
  H  H231  1  0.527800  0.888300  0.652700  1
  H  H232  1  0.441600  0.773200  0.603200  1
  H  H233  1  0.387200  0.867200  0.635100  1
  H  H234  1  0.657500  0.799400  0.746800  1
  H  H235  1  0.608100  0.734600  0.801900  1
  H  H236  1  0.566200  0.685300  0.703800  1
  H  H237  1  0.665600  0.919000  0.182400  1.0
  H  H238  1  0.555800  0.840400  0.103200  1
  H  H239  1  0.726500  1.007500  0.092700  1
  H  H240  1  0.590900  1.011400  0.079900  1
  H  H241  1  0.617300  0.929200  0.013700  1
  H  H242  1  0.632900  0.692900  0.136400  1
  H  H243  1  0.743800  0.769700  0.215900  1
  H  H244  1  0.768800  0.637900  0.078900  1
  H  H245  1  0.797600  0.613700  0.168800  1
  H  H246  1  0.879100  0.714200  0.158400  1
  H  H247  1  0.334400  0.081000  0.817600  1.0
  H  H248  1  0.444200  0.159600  0.896800  1
  H  H249  1  0.273500  -0.007500  0.907300  1
  H  H250  1  0.409100  -0.011400  0.920100  1
  H  H251  1  0.382700  0.070800  0.986300  1
  H  H252  1  0.367100  0.307100  0.863600  1
  H  H253  1  0.256200  0.230300  0.784100  1
  H  H254  1  0.231200  0.362100  0.921100  1
  H  H255  1  0.202400  0.386300  0.831200  1
  H  H256  1  0.120900  0.285800  0.841600  1
  O  O257  1  0.716730  0.817520  0.110940  1
  O  O258  1  0.283270  0.182480  0.889060  1
  S  S259  1  0.050900  1.230500  0.044050  1
  S  S260  1  -0.128000  0.701000  0.581900  1
  S  S261  1  -0.050900  0.769500  0.955950  1
  S  S262  1  0.128000  1.299000  0.418100  1
  Si  Si263  1  0.271410  0.683420  0.236630  1.0
  Si  Si264  1  -0.338760  1.287610  0.270280  1
  Si  Si265  1  -0.271410  1.316580  0.763370  1.0
  Si  Si266  1  0.338760  0.712390  0.729720  1
