# generated using pymatgen
data_SiH31(C15N)2
_symmetry_space_group_name_H-M   'P 1'
_cell_length_a   14.33310000
_cell_length_b   9.11440000
_cell_length_c   18.74590000
_cell_angle_alpha   90.00000000
_cell_angle_beta   91.47190000
_cell_angle_gamma   90.00000000
_symmetry_Int_Tables_number   1
_chemical_formula_structural   SiH31(C15N)2
_chemical_formula_sum   'Si4 H124 C120 N8'
_cell_volume   2448.11147196
_cell_formula_units_Z   4
loop_
 _symmetry_equiv_pos_site_id
 _symmetry_equiv_pos_as_xyz
  1  'x, y, z'
loop_
 _atom_site_type_symbol
 _atom_site_label
 _atom_site_symmetry_multiplicity
 _atom_site_fract_x
 _atom_site_fract_y
 _atom_site_fract_z
 _atom_site_occupancy
  C  C1  1  0.201790  0.536400  0.353580  1
  C  C2  1  0.382660  0.703700  0.348950  1
  C  C3  1  0.269310  0.630800  0.212450  1
  C  C4  1  0.364300  0.375800  0.300140  1
  C  C5  1  0.136640  0.520600  0.392610  1
  C  C6  1  0.364580  0.733800  0.428270  1
  C  C7  1  0.488660  0.677700  0.348570  1
  C  C8  1  0.202770  0.764400  0.219780  1
  C  C9  1  0.344200  0.683300  0.161500  1
  C  C10  1  0.300600  0.259700  0.262900  1
  C  C11  1  0.387300  0.315900  0.376400  1
  C  C12  1  0.065460  0.511000  0.444630  1
  C  C13  1  0.458150  0.781400  0.462070  1
  C  C14  1  0.527680  0.785300  0.403850  1
  C  C15  1  0.225200  0.869700  0.159000  1
  C  C16  1  0.330600  0.848300  0.154270  1
  C  C17  1  0.315100  0.123400  0.308100  1
  C  C18  1  0.325000  0.181900  0.383900  1
  C  C19  1  0.012120  0.380900  0.451130  1
  C  C20  1  0.053500  0.629900  0.491890  1
  C  C21  1  0.021490  0.262200  0.403640  1
  C  C22  1  -0.053500  0.370100  0.508110  1
  C  C23  1  -0.012120  0.619100  0.548870  1
  C  C24  1  0.104280  0.760500  0.484970  1
  C  C25  1  -0.029690  0.134000  0.411180  1
  C  C26  1  -0.065460  0.489000  0.555370  1
  C  C27  1  -0.104280  0.239500  0.515030  1
  C  C28  1  -0.021490  0.737800  0.596360  1
  C  C29  1  0.094200  0.877200  0.531040  1
  C  C30  1  -0.021090  0.012500  0.363720  1
  C  C31  1  -0.094200  0.122800  0.468960  1
  C  C32  1  -0.136640  0.479400  0.607390  1
  C  C33  1  0.029690  0.866000  0.588820  1
  C  C34  1  0.145980  1.009300  0.523330  1
  C  C35  1  -0.071710  -0.112500  0.372660  1
  C  C36  1  -0.145980  -0.009300  0.476670  1
  C  C37  1  -0.201790  0.463600  0.646420  1
  C  C38  1  0.021090  0.987500  0.636280  1
  C  C39  1  0.136080  1.123900  0.569300  1
  C  C40  1  -0.136080  -0.123900  0.430700  1
  C  C41  1  -0.062180  -0.235200  0.324140  1
  C  C42  1  0.071710  1.112500  0.627340  1
  C  C43  1  0.190340  1.256700  0.559170  1
  C  C44  1  -0.190340  -0.256700  0.440830  1
  C  C45  1  -0.382660  0.296300  0.651050  1
  C  C46  1  -0.269310  0.369200  0.787550  1
  C  C47  1  -0.364300  0.624200  0.699860  1
  C  C48  1  0.062180  1.235200  0.675860  1
  C  C49  1  -0.364580  0.266200  0.571730  1
  C  C50  1  -0.488660  0.322300  0.651430  1
  C  C51  1  -0.202770  0.235600  0.780220  1
  C  C52  1  -0.344200  0.316700  0.838500  1
  C  C53  1  -0.300600  0.740300  0.737100  1
  C  C54  1  -0.387300  0.684100  0.623600  1
  C  C55  1  -0.458150  0.218600  0.537930  1
  C  C56  1  -0.527680  0.214700  0.596150  1
  C  C57  1  -0.225200  0.130300  0.841000  1
  C  C58  1  -0.330600  0.151700  0.845730  1
  C  C59  1  -0.315100  0.876600  0.691900  1
  C  C60  1  -0.325000  0.818100  0.616100  1
  C  C61  1  -0.201790  0.036400  1.146420  1
  C  C62  1  -0.382660  0.203700  1.151050  1
  C  C63  1  -0.269310  0.130800  1.287550  1
  C  C64  1  -0.364300  -0.124200  1.199860  1
  C  C65  1  -0.136640  0.020600  1.107390  1
  C  C66  1  -0.364580  0.233800  1.071730  1
  C  C67  1  -0.488660  0.177700  1.151430  1
  C  C68  1  -0.202770  0.264400  1.280220  1
  C  C69  1  -0.344200  0.183300  1.338500  1
  C  C70  1  -0.300600  -0.240300  1.237100  1
  C  C71  1  -0.387300  -0.184100  1.123600  1
  C  C72  1  -0.065460  0.011000  1.055370  1
  C  C73  1  -0.458150  0.281400  1.037930  1
  C  C74  1  -0.527680  0.285300  1.096150  1
  C  C75  1  -0.225200  0.369700  1.341000  1
  C  C76  1  -0.330600  0.348300  1.345730  1
  C  C77  1  -0.315100  -0.376600  1.191900  1
  C  C78  1  -0.325000  -0.318100  1.116100  1
  C  C79  1  -0.012120  -0.119100  1.048870  1
  C  C80  1  -0.053500  0.129900  1.008110  1
  C  C81  1  -0.021490  -0.237800  1.096360  1
  C  C82  1  0.053500  -0.129900  0.991890  1
  C  C83  1  0.012120  0.119100  0.951130  1
  C  C84  1  -0.104280  0.260500  1.015030  1
  C  C85  1  0.029690  -0.366000  1.088820  1
  C  C86  1  0.065460  -0.011000  0.944630  1
  C  C87  1  0.104280  -0.260500  0.984970  1
  C  C88  1  0.021490  0.237800  0.903640  1
  C  C89  1  -0.094200  0.377200  0.968960  1
  C  C90  1  0.021090  -0.487500  1.136280  1
  C  C91  1  0.094200  -0.377200  1.031040  1
  C  C92  1  0.136640  -0.020600  0.892610  1
  C  C93  1  -0.029690  0.366000  0.911180  1
  C  C94  1  -0.145980  0.509300  0.976670  1
  C  C95  1  0.071710  -0.612500  1.127340  1
  C  C96  1  0.145980  -0.509300  1.023330  1
  C  C97  1  0.201790  -0.036400  0.853580  1
  C  C98  1  -0.021090  0.487500  0.863720  1
  C  C99  1  -0.136080  0.623900  0.930700  1
  C  C100  1  0.136080  -0.623900  1.069300  1
  C  C101  1  0.062180  -0.735200  1.175860  1
  C  C102  1  -0.071710  0.612500  0.872660  1
  C  C103  1  -0.190340  0.756700  0.940830  1
  C  C104  1  0.190340  -0.756700  1.059170  1
  C  C105  1  0.382660  -0.203700  0.848950  1
  C  C106  1  0.269310  -0.130800  0.712450  1
  C  C107  1  0.364300  0.124200  0.800140  1
  C  C108  1  -0.062180  0.735200  0.824140  1
  C  C109  1  0.364580  -0.233800  0.928270  1
  C  C110  1  0.488660  -0.177700  0.848570  1
  C  C111  1  0.202770  -0.264400  0.719780  1
  C  C112  1  0.344200  -0.183300  0.661500  1
  C  C113  1  0.300600  0.240300  0.762900  1
  C  C114  1  0.387300  0.184100  0.876400  1
  C  C115  1  0.458150  -0.281400  0.962070  1
  C  C116  1  0.527680  -0.285300  0.903850  1
  C  C117  1  0.225200  -0.369700  0.659000  1
  C  C118  1  0.330600  -0.348300  0.654270  1
  C  C119  1  0.315100  0.376600  0.808100  1
  C  C120  1  0.325000  0.318100  0.883900  1
  H  H121  1  0.371000  0.798200  0.323100  1
  H  H122  1  0.233300  0.550500  0.187900  1
  H  H123  1  0.423700  0.383200  0.273500  1
  H  H124  1  0.317500  0.812300  0.433100  1
  H  H125  1  0.341500  0.644000  0.451800  1
  H  H126  1  0.504000  0.575400  0.362100  1
  H  H127  1  0.513800  0.698200  0.300900  1
  H  H128  1  0.136800  0.732400  0.215900  1
  H  H129  1  0.213200  0.813000  0.266500  1
  H  H130  1  0.407300  0.660900  0.181300  1
  H  H131  1  0.336400  0.634800  0.114500  1
  H  H132  1  0.234500  0.291100  0.262500  1
  H  H133  1  0.319600  0.242400  0.213200  1
  H  H134  1  0.454000  0.288400  0.381300  1
  H  H135  1  0.373200  0.390300  0.413100  1
  H  H136  1  0.452300  0.879700  0.484000  1
  H  H137  1  0.478300  0.711000  0.499600  1
  H  H138  1  0.590100  0.753900  0.421800  1
  H  H139  1  0.532600  0.885200  0.383500  1
  H  H140  1  0.192300  0.841600  0.114000  1
  H  H141  1  0.209300  0.972300  0.171100  1
  H  H142  1  0.353300  0.883800  0.107900  1
  H  H143  1  0.364200  0.901300  0.193200  1
  H  H144  1  0.372000  0.070200  0.294300  1
  H  H145  1  0.260900  0.056500  0.303200  1
  H  H146  1  0.354500  0.108100  0.416000  1
  H  H147  1  0.263500  0.209400  0.402700  1
  H  H148  1  0.063800  0.270100  0.365600  1
  H  H149  1  0.147000  0.768900  0.447300  1
  H  H150  1  -0.147000  0.231100  0.552700  1
  H  H151  1  -0.063800  0.729900  0.634400  1
  H  H152  1  0.020600  0.018900  0.325300  1
  H  H153  1  0.188300  1.017700  0.485400  1
  H  H154  1  -0.188300  -0.017700  0.514600  1
  H  H155  1  -0.020600  0.981100  0.674700  1
  H  H156  1  -0.371000  0.201800  0.676900  1
  H  H157  1  -0.233300  0.449500  0.812100  1
  H  H158  1  -0.423700  0.616800  0.726500  1
  H  H159  1  -0.317500  0.187700  0.566900  1
  H  H160  1  -0.341500  0.356000  0.548200  1
  H  H161  1  -0.504000  0.424600  0.637900  1
  H  H162  1  -0.513800  0.301800  0.699100  1
  H  H163  1  -0.136800  0.267600  0.784100  1
  H  H164  1  -0.213200  0.187000  0.733500  1
  H  H165  1  -0.407300  0.339100  0.818700  1
  H  H166  1  -0.336400  0.365200  0.885500  1
  H  H167  1  -0.234500  0.708900  0.737500  1
  H  H168  1  -0.319600  0.757600  0.786800  1
  H  H169  1  -0.454000  0.711600  0.618700  1
  H  H170  1  -0.373200  0.609700  0.586900  1
  H  H171  1  -0.452300  0.120300  0.516000  1
  H  H172  1  -0.478300  0.289000  0.500400  1
  H  H173  1  -0.590100  0.246100  0.578200  1
  H  H174  1  -0.532600  0.114800  0.616500  1
  H  H175  1  -0.192300  0.158400  0.886000  1
  H  H176  1  -0.209300  0.027700  0.828900  1
  H  H177  1  -0.353300  0.116200  0.892100  1
  H  H178  1  -0.364200  0.098700  0.806800  1
  H  H179  1  -0.372000  0.929800  0.705700  1
  H  H180  1  -0.260900  0.943500  0.696800  1
  H  H181  1  -0.354500  0.891900  0.584000  1
  H  H182  1  -0.263500  0.790600  0.597300  1
  H  H183  1  -0.371000  0.298200  1.176900  1
  H  H184  1  -0.233300  0.050500  1.312100  1
  H  H185  1  -0.423700  -0.116800  1.226500  1
  H  H186  1  -0.317500  0.312300  1.066900  1
  H  H187  1  -0.341500  0.144000  1.048200  1
  H  H188  1  -0.504000  0.075400  1.137900  1
  H  H189  1  -0.513800  0.198200  1.199100  1
  H  H190  1  -0.136800  0.232400  1.284100  1
  H  H191  1  -0.213200  0.313000  1.233500  1
  H  H192  1  -0.407300  0.160900  1.318700  1
  H  H193  1  -0.336400  0.134800  1.385500  1
  H  H194  1  -0.234500  -0.208900  1.237500  1
  H  H195  1  -0.319600  -0.257600  1.286800  1
  H  H196  1  -0.454000  -0.211600  1.118700  1
  H  H197  1  -0.373200  -0.109700  1.086900  1
  H  H198  1  -0.452300  0.379700  1.016000  1
  H  H199  1  -0.478300  0.211000  1.000400  1
  H  H200  1  -0.590100  0.253900  1.078200  1
  H  H201  1  -0.532600  0.385200  1.116500  1
  H  H202  1  -0.192300  0.341600  1.386000  1
  H  H203  1  -0.209300  0.472300  1.328900  1
  H  H204  1  -0.353300  0.383800  1.392100  1
  H  H205  1  -0.364200  0.401300  1.306800  1
  H  H206  1  -0.372000  -0.429800  1.205700  1
  H  H207  1  -0.260900  -0.443500  1.196800  1
  H  H208  1  -0.354500  -0.391900  1.084000  1
  H  H209  1  -0.263500  -0.290600  1.097300  1
  H  H210  1  -0.063800  -0.229900  1.134400  1
  H  H211  1  -0.147000  0.268900  1.052700  1
  H  H212  1  0.147000  -0.268900  0.947300  1
  H  H213  1  0.063800  0.229900  0.865600  1
  H  H214  1  -0.020600  -0.481100  1.174700  1
  H  H215  1  -0.188300  0.517700  1.014600  1
  H  H216  1  0.188300  -0.517700  0.985400  1
  H  H217  1  0.020600  0.481100  0.825300  1
  H  H218  1  0.371000  -0.298200  0.823100  1
  H  H219  1  0.233300  -0.050500  0.687900  1
  H  H220  1  0.423700  0.116800  0.773500  1
  H  H221  1  0.317500  -0.312300  0.933100  1
  H  H222  1  0.341500  -0.144000  0.951800  1
  H  H223  1  0.504000  -0.075400  0.862100  1
  H  H224  1  0.513800  -0.198200  0.800900  1
  H  H225  1  0.136800  -0.232400  0.715900  1
  H  H226  1  0.213200  -0.313000  0.766500  1
  H  H227  1  0.407300  -0.160900  0.681300  1
  H  H228  1  0.336400  -0.134800  0.614500  1
  H  H229  1  0.234500  0.208900  0.762500  1
  H  H230  1  0.319600  0.257600  0.713200  1
  H  H231  1  0.454000  0.211600  0.881300  1
  H  H232  1  0.373200  0.109700  0.913100  1
  H  H233  1  0.452300  -0.379700  0.984000  1
  H  H234  1  0.478300  -0.211000  0.999600  1
  H  H235  1  0.590100  -0.253900  0.921800  1
  H  H236  1  0.532600  -0.385200  0.883500  1
  H  H237  1  0.192300  -0.341600  0.614000  1
  H  H238  1  0.209300  -0.472300  0.671100  1
  H  H239  1  0.353300  -0.383800  0.607900  1
  H  H240  1  0.364200  -0.401300  0.693200  1
  H  H241  1  0.372000  0.429800  0.794300  1
  H  H242  1  0.260900  0.443500  0.803200  1
  H  H243  1  0.354500  0.391900  0.916000  1
  H  H244  1  0.263500  0.290600  0.902700  1
  N  N245  1  -0.055690  -0.331100  0.286300  1
  N  N246  1  0.234260  1.356600  0.548960  1
  N  N247  1  -0.234260  -0.356600  0.451040  1
  N  N248  1  0.055690  1.331100  0.713700  1
  N  N249  1  0.055690  -0.831100  1.213700  1
  N  N250  1  -0.234260  0.856600  0.951040  1
  N  N251  1  0.234260  -0.856600  1.048960  1
  N  N252  1  -0.055690  0.831100  0.786300  1
  Si  Si253  1  0.308420  0.561060  0.302110  1.0
  Si  Si254  1  -0.308420  0.438940  0.697890  1
  Si  Si255  1  -0.308420  0.061060  1.197890  1.0
  Si  Si256  1  0.308420  -0.061060  0.802110  1
