# generated using pymatgen
data_SiH27C23
_symmetry_space_group_name_H-M   'P 1'
_cell_length_a   7.73040000
_cell_length_b   7.56950000
_cell_length_c   16.92930000
_cell_angle_alpha   77.16300000
_cell_angle_beta   89.07700000
_cell_angle_gamma   84.01500000
_symmetry_Int_Tables_number   1
_chemical_formula_structural   SiH27C23
_chemical_formula_sum   'Si2 H54 C46'
_cell_volume   960.57276075
_cell_formula_units_Z   2
loop_
 _symmetry_equiv_pos_site_id
 _symmetry_equiv_pos_as_xyz
  1  'x, y, z'
loop_
 _atom_site_type_symbol
 _atom_site_label
 _atom_site_symmetry_multiplicity
 _atom_site_fract_x
 _atom_site_fract_y
 _atom_site_fract_z
 _atom_site_occupancy
  C  C1  1  0.317000  0.326100  0.728060  1
  C  C2  1  -0.026200  0.322300  0.813160  1
  C  C3  1  0.308900  0.362100  0.901430  1
  C  C4  1  0.265000  -0.004100  0.865200  1
  C  C5  1  0.376700  0.378400  0.661160  1
  C  C6  1  -0.107400  0.239000  0.748790  1
  C  C7  1  -0.067400  0.529800  0.793500  1
  C  C8  1  0.215300  0.324100  0.982930  1
  C  C9  1  0.505000  0.310300  0.912840  1
  C  C10  1  0.145000  -0.096000  0.912400  1
  C  C11  1  0.425300  -0.109600  0.839500  1
  C  C12  1  0.441600  0.440400  0.580580  1
  C  C13  1  0.389600  -0.174400  0.764000  1
  C  C14  1  0.392600  0.622100  0.538280  1
  C  C15  1  0.548000  0.318900  0.544350  1
  C  C16  1  0.289400  0.747700  0.573820  1
  C  C17  1  0.452000  0.681100  0.455650  1
  C  C18  1  0.607400  0.377900  0.461720  1
  C  C19  1  0.597800  0.138000  0.584950  1
  C  C20  1  0.245300  0.925700  0.533450  1
  C  C21  1  0.558400  0.559600  0.419420  1
  C  C22  1  0.402200  0.862000  0.415050  1
  C  C23  1  0.710600  0.252300  0.426180  1
  C  C24  1  0.696600  0.014900  0.548840  1
  C  C25  1  0.143000  1.055700  0.569570  1
  C  C26  1  0.303400  0.985100  0.451160  1
  C  C27  1  0.623300  0.621600  0.338840  1
  C  C28  1  0.754700  0.074300  0.466550  1
  C  C29  1  0.744300  -0.169700  0.589490  1
  C  C30  1  0.102600  1.229200  0.528240  1
  C  C31  1  0.255700  1.169700  0.410510  1
  C  C32  1  0.683000  0.673900  0.271940  1
  C  C33  1  0.857000  -0.055700  0.430430  1
  C  C34  1  0.839900  -0.288000  0.552660  1
  C  C35  1  0.160100  1.288000  0.447340  1
  C  C36  1  0.897400  -0.229200  0.471760  1
  C  C37  1  1.026200  0.677700  0.186840  1
  C  C38  1  0.691100  0.637900  0.098570  1
  C  C39  1  0.735000  1.004100  0.134800  1
  C  C40  1  1.107400  0.761000  0.251210  1
  C  C41  1  1.067400  0.470200  0.206500  1
  C  C42  1  0.784700  0.675900  0.017070  1
  C  C43  1  0.495000  0.689700  0.087160  1
  C  C44  1  0.855000  1.096000  0.087600  1
  C  C45  1  0.574700  1.109600  0.160500  1
  C  C46  1  0.610400  1.174400  0.236000  1
  H  H47  1  -0.082500  0.274100  0.866100  1
  H  H48  1  0.290900  0.496600  0.879100  1
  H  H49  1  -0.231300  0.282700  0.742400  1
  H  H50  1  -0.093900  0.105800  0.766300  1
  H  H51  1  -0.048400  0.275500  0.696900  1
  H  H52  1  -0.011400  0.582100  0.742500  1
  H  H53  1  -0.023600  0.579200  0.837300  1
  H  H54  1  -0.193600  0.561000  0.788100  1
  H  H55  1  0.233500  0.193600  1.007700  1
  H  H56  1  0.090600  0.361300  0.974400  1
  H  H57  1  0.262000  0.393100  1.018900  1
  H  H58  1  0.550100  0.377800  0.949800  1
  H  H59  1  0.562700  0.340800  0.860300  1
  H  H60  1  0.527700  0.179300  0.935700  1
  H  H61  1  0.162500  -0.224700  0.929000  1
  H  H62  1  0.044300  -0.030800  0.928800  1
  H  H63  1  0.521400  -0.030800  0.829200  1
  H  H64  1  0.462200  -0.215800  0.883700  1
  H  H65  1  0.292300  -0.249600  0.773600  1
  H  H66  1  0.493400  -0.246800  0.749900  1
  H  H67  1  0.359800  -0.069100  0.719300  1
  H  H68  1  0.248700  0.708400  0.627500  1
  H  H69  1  0.562100  0.098600  0.639400  1
  H  H70  1  0.437900  0.901400  0.360600  1
  H  H71  1  0.751300  0.291600  0.372500  1
  H  H72  1  0.103000  1.019100  0.623500  1
  H  H73  1  0.708100  -0.210600  0.643800  1
  H  H74  1  0.034900  1.312900  0.553500  1
  H  H75  1  0.291900  1.210600  0.356200  1
  H  H76  1  0.897000  -0.019100  0.376500  1
  H  H77  1  0.868500  -0.410600  0.580900  1
  H  H78  1  0.131500  1.410600  0.419100  1
  H  H79  1  0.965100  -0.312900  0.446500  1
  H  H80  1  1.082500  0.725900  0.133900  1
  H  H81  1  0.709100  0.503400  0.120900  1
  H  H82  1  1.231300  0.717300  0.257600  1
  H  H83  1  1.093900  0.894200  0.233700  1
  H  H84  1  1.048400  0.724500  0.303100  1
  H  H85  1  1.011400  0.417900  0.257500  1
  H  H86  1  1.023600  0.420800  0.162700  1
  H  H87  1  1.193600  0.439000  0.211900  1
  H  H88  1  0.766500  0.806400  -0.007700  1
  H  H89  1  0.909400  0.638700  0.025600  1
  H  H90  1  0.738000  0.606900  -0.018900  1
  H  H91  1  0.449900  0.622200  0.050200  1
  H  H92  1  0.437300  0.659200  0.139700  1
  H  H93  1  0.472300  0.820700  0.064300  1
  H  H94  1  0.837500  1.224700  0.071000  1
  H  H95  1  0.955700  1.030800  0.071200  1
  H  H96  1  0.478600  1.030800  0.170800  1
  H  H97  1  0.537800  1.215800  0.116300  1
  H  H98  1  0.707700  1.249600  0.226400  1
  H  H99  1  0.506600  1.246800  0.250100  1
  H  H100  1  0.640200  1.069100  0.280700  1
  Si  Si101  1  0.212940  0.250550  0.826170  1.0
  Si  Si102  1  0.787060  0.749450  0.173830  1
