# generated using pymatgen
data_SiH39C31
_symmetry_space_group_name_H-M   'P 1'
_cell_length_a   8.46550000
_cell_length_b   9.65310000
_cell_length_c   16.31820000
_cell_angle_alpha   81.12200000
_cell_angle_beta   88.62600000
_cell_angle_gamma   72.30400000
_symmetry_Int_Tables_number   1
_chemical_formula_structural   SiH39C31
_chemical_formula_sum   'Si2 H78 C62'
_cell_volume   1254.80545635
_cell_formula_units_Z   2
loop_
 _symmetry_equiv_pos_site_id
 _symmetry_equiv_pos_as_xyz
  1  'x, y, z'
loop_
 _atom_site_type_symbol
 _atom_site_label
 _atom_site_symmetry_multiplicity
 _atom_site_fract_x
 _atom_site_fract_y
 _atom_site_fract_z
 _atom_site_occupancy
  C  C1  1  0.097000  0.177300  0.196440  1
  C  C2  1  0.374800  0.112300  0.323370  1
  C  C3  1  0.188100  0.428100  0.246260  1
  C  C4  1  0.013400  0.238100  0.371680  1
  C  C5  1  0.065800  0.131200  0.135640  1
  C  C6  1  0.369800  -0.041700  0.363800  1
  C  C7  1  0.504000  0.098600  0.254980  1
  C  C8  1  0.304500  0.476300  0.298450  1
  C  C9  1  0.024400  0.552700  0.227560  1
  C  C10  1  -0.170800  0.312900  0.349830  1
  C  C11  1  0.061900  0.295600  0.447560  1
  C  C12  1  0.032200  0.068500  0.066370  1
  C  C13  1  0.541800  -0.143000  0.393400  1
  C  C14  1  0.673900  -0.005300  0.284030  1
  C  C15  1  0.331300  0.621500  0.259300  1
  C  C16  1  0.052900  0.695900  0.187170  1
  C  C17  1  -0.280200  0.294700  0.424840  1
  C  C18  1  -0.048300  0.278700  0.521040  1
  C  C19  1  -0.131300  0.107700  0.033180  1
  C  C20  1  0.163900  -0.037200  0.033990  1
  C  C21  1  0.662600  -0.155900  0.322800  1
  C  C22  1  0.165200  0.742400  0.241130  1
  C  C23  1  -0.230000  0.352900  0.497760  1
  C  C24  1  -0.263500  0.216000  0.061430  1
  C  C25  1  -0.163900  0.037200  -0.033990  1
  C  C26  1  0.131300  -0.107700  -0.033180  1
  C  C27  1  0.327900  -0.075500  0.064430  1
  C  C28  1  -0.423300  0.255700  0.028610  1
  C  C29  1  -0.032200  -0.068500  -0.066370  1
  C  C30  1  -0.327900  0.075500  -0.064430  1
  C  C31  1  0.263500  -0.216000  -0.061430  1
  C  C32  1  0.456300  -0.181100  0.035360  1
  C  C33  1  -0.556000  0.368000  0.056080  1
  C  C34  1  -0.456300  0.181100  -0.035360  1
  C  C35  1  -0.065800  -0.131200  -0.135640  1
  C  C36  1  0.423300  -0.255700  -0.028610  1
  C  C37  1  0.623800  -0.218600  0.065860  1
  C  C38  1  -0.711900  0.401600  0.024210  1
  C  C39  1  -0.623800  0.218600  -0.065860  1
  C  C40  1  -0.097000  -0.177300  -0.196440  1
  C  C41  1  0.556000  -0.368000  -0.056080  1
  C  C42  1  0.745800  -0.324400  0.036940  1
  C  C43  1  -0.745800  0.324400  -0.036940  1
  C  C44  1  0.711900  -0.401600  -0.024210  1
  C  C45  1  -0.374800  -0.112300  -0.323370  1
  C  C46  1  -0.188100  -0.428100  -0.246260  1
  C  C47  1  -0.013400  -0.238100  -0.371680  1
  C  C48  1  -0.369800  0.041700  -0.363800  1
  C  C49  1  -0.504000  -0.098600  -0.254980  1
  C  C50  1  -0.304500  -0.476300  -0.298450  1
  C  C51  1  -0.024400  -0.552700  -0.227560  1
  C  C52  1  0.170800  -0.312900  -0.349830  1
  C  C53  1  -0.061900  -0.295600  -0.447560  1
  C  C54  1  -0.541800  0.143000  -0.393400  1
  C  C55  1  -0.673900  0.005300  -0.284030  1
  C  C56  1  -0.331300  -0.621500  -0.259300  1
  C  C57  1  -0.052900  -0.695900  -0.187170  1
  C  C58  1  0.280200  -0.294700  -0.424840  1
  C  C59  1  0.048300  -0.278700  -0.521040  1
  C  C60  1  -0.662600  0.155900  -0.322800  1
  C  C61  1  -0.165200  -0.742400  -0.241130  1
  C  C62  1  0.230000  -0.352900  -0.497760  1
  H  H63  1  0.414600  0.156000  0.367400  1
  H  H64  1  0.242400  0.418300  0.191400  1
  H  H65  1  0.025000  0.131800  0.390600  1
  H  H66  1  0.295100  -0.031700  0.411600  1
  H  H67  1  0.324100  -0.086400  0.323100  1
  H  H68  1  0.464100  0.063000  0.208100  1
  H  H69  1  0.514400  0.197300  0.234300  1
  H  H70  1  0.257600  0.486800  0.354100  1
  H  H71  1  0.413100  0.398600  0.305700  1
  H  H72  1  -0.046100  0.523600  0.190100  1
  H  H73  1  -0.035400  0.568400  0.279900  1
  H  H74  1  -0.203200  0.269700  0.304100  1
  H  H75  1  -0.189300  0.419000  0.330200  1
  H  H76  1  0.178700  0.240900  0.464100  1
  H  H77  1  0.053700  0.400800  0.431900  1
  H  H78  1  0.583200  -0.103700  0.438200  1
  H  H79  1  0.534300  -0.241800  0.416400  1
  H  H80  1  0.721700  0.036900  0.325300  1
  H  H81  1  0.748700  -0.016200  0.236300  1
  H  H82  1  0.391900  0.608100  0.207100  1
  H  H83  1  0.399600  0.651400  0.297500  1
  H  H84  1  0.103900  0.682900  0.132500  1
  H  H85  1  -0.055000  0.774200  0.177900  1
  H  H86  1  -0.397600  0.348300  0.409200  1
  H  H87  1  -0.270300  0.189200  0.441100  1
  H  H88  1  -0.030300  0.172800  0.541100  1
  H  H89  1  -0.017400  0.322600  0.566800  1
  H  H90  1  0.625700  -0.202400  0.280000  1
  H  H91  1  0.773600  -0.219700  0.343900  1
  H  H92  1  0.110100  0.763400  0.294000  1
  H  H93  1  0.184800  0.833600  0.212600  1
  H  H94  1  -0.298600  0.335100  0.545900  1
  H  H95  1  -0.250400  0.460400  0.483400  1
  H  H96  1  -0.242600  0.263900  0.104800  1
  H  H97  1  0.351000  -0.026600  0.106800  1
  H  H98  1  -0.351000  0.026600  -0.106800  1
  H  H99  1  0.242600  -0.263900  -0.104800  1
  H  H100  1  -0.535000  0.420300  0.097300  1
  H  H101  1  0.649100  -0.168300  0.107000  1
  H  H102  1  -0.798900  0.477400  0.043000  1
  H  H103  1  -0.649100  0.168300  -0.107000  1
  H  H104  1  0.535000  -0.420300  -0.097300  1
  H  H105  1  0.856100  -0.347400  0.057800  1
  H  H106  1  -0.856100  0.347400  -0.057800  1
  H  H107  1  0.798900  -0.477400  -0.043000  1
  H  H108  1  -0.414600  -0.156000  -0.367400  1
  H  H109  1  -0.242400  -0.418300  -0.191400  1
  H  H110  1  -0.025000  -0.131800  -0.390600  1
  H  H111  1  -0.295100  0.031700  -0.411600  1
  H  H112  1  -0.324100  0.086400  -0.323100  1
  H  H113  1  -0.464100  -0.063000  -0.208100  1
  H  H114  1  -0.514400  -0.197300  -0.234300  1
  H  H115  1  -0.257600  -0.486800  -0.354100  1
  H  H116  1  -0.413100  -0.398600  -0.305700  1
  H  H117  1  0.046100  -0.523600  -0.190100  1
  H  H118  1  0.035400  -0.568400  -0.279900  1
  H  H119  1  0.203200  -0.269700  -0.304100  1
  H  H120  1  0.189300  -0.419000  -0.330200  1
  H  H121  1  -0.178700  -0.240900  -0.464100  1
  H  H122  1  -0.053700  -0.400800  -0.431900  1
  H  H123  1  -0.583200  0.103700  -0.438200  1
  H  H124  1  -0.534300  0.241800  -0.416400  1
  H  H125  1  -0.721700  -0.036900  -0.325300  1
  H  H126  1  -0.748700  0.016200  -0.236300  1
  H  H127  1  -0.391900  -0.608100  -0.207100  1
  H  H128  1  -0.399600  -0.651400  -0.297500  1
  H  H129  1  -0.103900  -0.682900  -0.132500  1
  H  H130  1  0.055000  -0.774200  -0.177900  1
  H  H131  1  0.397600  -0.348300  -0.409200  1
  H  H132  1  0.270300  -0.189200  -0.441100  1
  H  H133  1  0.030300  -0.172800  -0.541100  1
  H  H134  1  0.017400  -0.322600  -0.566800  1
  H  H135  1  -0.625700  0.202400  -0.280000  1
  H  H136  1  -0.773600  0.219700  -0.343900  1
  H  H137  1  -0.110100  -0.763400  -0.294000  1
  H  H138  1  -0.184800  -0.833600  -0.212600  1
  H  H139  1  0.298600  -0.335100  -0.545900  1
  H  H140  1  0.250400  -0.460400  -0.483400  1
  Si  Si141  1  0.165170  0.241870  0.286200  1.0
  Si  Si142  1  -0.165170  -0.241870  -0.286200  1
