# generated using pymatgen
data_SiH23(C9Br)2
_symmetry_space_group_name_H-M   'P 1'
_cell_length_a   13.96470000
_cell_length_b   19.61480000
_cell_length_c   14.10890000
_cell_angle_alpha   90.00000000
_cell_angle_beta   95.98270000
_cell_angle_gamma   90.00000000
_symmetry_Int_Tables_number   1
_chemical_formula_structural   SiH23(C9Br)2
_chemical_formula_sum   'Si8 H184 C144 Br16'
_cell_volume   3843.58740289
_cell_formula_units_Z   8
loop_
 _symmetry_equiv_pos_site_id
 _symmetry_equiv_pos_as_xyz
  1  'x, y, z'
loop_
 _atom_site_type_symbol
 _atom_site_label
 _atom_site_symmetry_multiplicity
 _atom_site_fract_x
 _atom_site_fract_y
 _atom_site_fract_z
 _atom_site_occupancy
  Br  Br1  1  -0.124620  0.095240  0.453830  1
  Br  Br2  1  0.629140  0.129690  0.531480  1
  Br  Br3  1  -0.118720  -0.000770  0.259050  1
  Br  Br4  1  0.638400  0.038680  0.331360  1
  Br  Br5  1  0.124620  -0.404760  0.046170  1
  Br  Br6  1  -0.629140  -0.370310  -0.031480  1
  Br  Br7  1  0.118720  -0.500770  0.240950  1
  Br  Br8  1  -0.638400  -0.461320  0.168640  1
  Br  Br9  1  1.124620  -0.095240  0.546170  1
  Br  Br10  1  0.370860  -0.129690  0.468520  1
  Br  Br11  1  1.118720  0.000770  0.740950  1
  Br  Br12  1  0.361600  -0.038680  0.668640  1
  Br  Br13  1  -0.124620  0.404760  0.953830  1
  Br  Br14  1  0.629140  0.370310  1.031480  1
  Br  Br15  1  -0.118720  0.500770  0.759050  1
  Br  Br16  1  0.638400  0.461320  0.831360  1
  C  C17  1  0.244100  0.170600  0.636500  1
  C  C18  1  0.342500  0.187400  0.831900  1
  C  C19  1  0.256700  0.312200  0.721300  1
  C  C20  1  0.120200  0.200500  0.795200  1
  C  C21  1  0.249200  0.136000  0.568200  1
  C  C22  1  0.332100  0.112600  0.857800  1
  C  C23  1  0.361200  0.229500  0.922100  1
  C  C24  1  0.356500  0.326100  0.690900  1
  C  C25  1  0.179100  0.340800  0.647200  1
  C  C26  1  0.092500  0.255200  0.864700  1
  C  C27  1  0.038400  0.185400  0.718600  1
  C  C28  1  0.253700  0.094460  0.485100  1
  C  C29  1  0.167600  0.070400  0.435200  1
  C  C30  1  0.343500  0.079250  0.452700  1
  C  C31  1  0.077400  0.087500  0.463800  1
  C  C32  1  0.171800  0.028810  0.351800  1
  C  C33  1  0.347400  0.037910  0.368900  1
  C  C34  1  0.431000  0.104510  0.499300  1
  C  C35  1  -0.006500  0.067300  0.413100  1
  C  C36  1  0.082700  0.007200  0.301900  1
  C  C37  1  0.261600  0.011720  0.321300  1
  C  C38  1  0.438300  0.025900  0.335400  1
  C  C39  1  0.516100  0.092600  0.465600  1
  C  C40  1  -0.003100  0.026400  0.330600  1
  C  C41  1  0.265100  -0.033200  0.240000  1
  C  C42  1  0.520000  0.053500  0.380700  1
  C  C43  1  0.266400  -0.072000  0.175000  1
  C  C44  1  0.370900  -0.112000  0.009200  1
  C  C45  1  0.283400  -0.221100  0.130800  1
  C  C46  1  0.154500  -0.120000  -0.009700  1
  C  C47  1  0.374300  -0.041000  -0.023300  1
  C  C48  1  0.383100  -0.161300  -0.073700  1
  C  C49  1  0.384300  -0.232000  0.181600  1
  C  C50  1  0.209300  -0.239000  0.197900  1
  C  C51  1  0.068800  -0.089100  0.034700  1
  C  C52  1  0.127400  -0.185100  -0.062000  1
  C  C53  1  -0.244100  -0.329400  -0.136500  1
  C  C54  1  -0.342500  -0.312600  -0.331900  1
  C  C55  1  -0.256700  -0.187800  -0.221300  1
  C  C56  1  -0.120200  -0.299500  -0.295200  1
  C  C57  1  -0.249200  -0.364000  -0.068200  1
  C  C58  1  -0.332100  -0.387400  -0.357800  1
  C  C59  1  -0.361200  -0.270500  -0.422100  1
  C  C60  1  -0.356500  -0.173900  -0.190900  1
  C  C61  1  -0.179100  -0.159200  -0.147200  1
  C  C62  1  -0.092500  -0.244800  -0.364700  1
  C  C63  1  -0.038400  -0.314600  -0.218600  1
  C  C64  1  -0.253700  -0.405540  0.014900  1
  C  C65  1  -0.167600  -0.429600  0.064800  1
  C  C66  1  -0.343500  -0.420750  0.047300  1
  C  C67  1  -0.077400  -0.412500  0.036200  1
  C  C68  1  -0.171800  -0.471190  0.148200  1
  C  C69  1  -0.347400  -0.462090  0.131100  1
  C  C70  1  -0.431000  -0.395490  0.000700  1
  C  C71  1  0.006500  -0.432700  0.086900  1
  C  C72  1  -0.082700  -0.492800  0.198100  1
  C  C73  1  -0.261600  -0.488280  0.178700  1
  C  C74  1  -0.438300  -0.474100  0.164600  1
  C  C75  1  -0.516100  -0.407400  0.034400  1
  C  C76  1  0.003100  -0.473600  0.169400  1
  C  C77  1  -0.265100  -0.533200  0.260000  1
  C  C78  1  -0.520000  -0.446500  0.119300  1
  C  C79  1  -0.266400  -0.572000  0.325000  1
  C  C80  1  -0.370900  -0.612000  0.490800  1
  C  C81  1  -0.283400  -0.721100  0.369200  1
  C  C82  1  -0.154500  -0.620000  0.509700  1
  C  C83  1  -0.374300  -0.541000  0.523300  1
  C  C84  1  -0.383100  -0.661300  0.573700  1
  C  C85  1  -0.384300  -0.732000  0.318400  1
  C  C86  1  -0.209300  -0.739000  0.302100  1
  C  C87  1  -0.068800  -0.589100  0.465300  1
  C  C88  1  -0.127400  -0.685100  0.562000  1
  C  C89  1  0.755900  -0.170600  0.363500  1
  C  C90  1  0.657500  -0.187400  0.168100  1
  C  C91  1  0.743300  -0.312200  0.278700  1
  C  C92  1  0.879800  -0.200500  0.204800  1
  C  C93  1  0.750800  -0.136000  0.431800  1
  C  C94  1  0.667900  -0.112600  0.142200  1
  C  C95  1  0.638800  -0.229500  0.077900  1
  C  C96  1  0.643500  -0.326100  0.309100  1
  C  C97  1  0.820900  -0.340800  0.352800  1
  C  C98  1  0.907500  -0.255200  0.135300  1
  C  C99  1  0.961600  -0.185400  0.281400  1
  C  C100  1  0.746300  -0.094460  0.514900  1
  C  C101  1  0.832400  -0.070400  0.564800  1
  C  C102  1  0.656500  -0.079250  0.547300  1
  C  C103  1  0.922600  -0.087500  0.536200  1
  C  C104  1  0.828200  -0.028810  0.648200  1
  C  C105  1  0.652600  -0.037910  0.631100  1
  C  C106  1  0.569000  -0.104510  0.500700  1
  C  C107  1  1.006500  -0.067300  0.586900  1
  C  C108  1  0.917300  -0.007200  0.698100  1
  C  C109  1  0.738400  -0.011720  0.678700  1
  C  C110  1  0.561700  -0.025900  0.664600  1
  C  C111  1  0.483900  -0.092600  0.534400  1
  C  C112  1  1.003100  -0.026400  0.669400  1
  C  C113  1  0.734900  0.033200  0.760000  1
  C  C114  1  0.480000  -0.053500  0.619300  1
  C  C115  1  0.733600  0.072000  0.825000  1
  C  C116  1  0.629100  0.112000  0.990800  1
  C  C117  1  0.716600  0.221100  0.869200  1
  C  C118  1  0.845500  0.120000  1.009700  1
  C  C119  1  0.625700  0.041000  1.023300  1
  C  C120  1  0.616900  0.161300  1.073700  1
  C  C121  1  0.615700  0.232000  0.818400  1
  C  C122  1  0.790700  0.239000  0.802100  1
  C  C123  1  0.931200  0.089100  0.965300  1
  C  C124  1  0.872600  0.185100  1.062000  1
  C  C125  1  0.244100  0.329400  1.136500  1
  C  C126  1  0.342500  0.312600  1.331900  1
  C  C127  1  0.256700  0.187800  1.221300  1
  C  C128  1  0.120200  0.299500  1.295200  1
  C  C129  1  0.249200  0.364000  1.068200  1
  C  C130  1  0.332100  0.387400  1.357800  1
  C  C131  1  0.361200  0.270500  1.422100  1
  C  C132  1  0.356500  0.173900  1.190900  1
  C  C133  1  0.179100  0.159200  1.147200  1
  C  C134  1  0.092500  0.244800  1.364700  1
  C  C135  1  0.038400  0.314600  1.218600  1
  C  C136  1  0.253700  0.405540  0.985100  1
  C  C137  1  0.167600  0.429600  0.935200  1
  C  C138  1  0.343500  0.420750  0.952700  1
  C  C139  1  0.077400  0.412500  0.963800  1
  C  C140  1  0.171800  0.471190  0.851800  1
  C  C141  1  0.347400  0.462090  0.868900  1
  C  C142  1  0.431000  0.395490  0.999300  1
  C  C143  1  -0.006500  0.432700  0.913100  1
  C  C144  1  0.082700  0.492800  0.801900  1
  C  C145  1  0.261600  0.488280  0.821300  1
  C  C146  1  0.438300  0.474100  0.835400  1
  C  C147  1  0.516100  0.407400  0.965600  1
  C  C148  1  -0.003100  0.473600  0.830600  1
  C  C149  1  0.265100  0.533200  0.740000  1
  C  C150  1  0.520000  0.446500  0.880700  1
  C  C151  1  0.266400  0.572000  0.675000  1
  C  C152  1  0.370900  0.612000  0.509200  1
  C  C153  1  0.283400  0.721100  0.630800  1
  C  C154  1  0.154500  0.620000  0.490300  1
  C  C155  1  0.374300  0.541000  0.476700  1
  C  C156  1  0.383100  0.661300  0.426300  1
  C  C157  1  0.384300  0.732000  0.681600  1
  C  C158  1  0.209300  0.739000  0.697900  1
  C  C159  1  0.068800  0.589100  0.534700  1
  C  C160  1  0.127400  0.685100  0.438000  1
  H  H161  1  0.401300  0.191100  0.797500  1
  H  H162  1  0.252000  0.338000  0.781900  1
  H  H163  1  0.130400  0.157700  0.833400  1
  H  H164  1  0.391000  0.097100  0.895500  1
  H  H165  1  0.321300  0.085400  0.799500  1
  H  H166  1  0.277200  0.107200  0.895200  1
  H  H167  1  0.303400  0.229800  0.955900  1
  H  H168  1  0.377600  0.276300  0.905500  1
  H  H169  1  0.414800  0.209500  0.963200  1
  H  H170  1  0.365700  0.298800  0.634400  1
  H  H171  1  0.405600  0.313800  0.742900  1
  H  H172  1  0.362400  0.374600  0.675900  1
  H  H173  1  0.193900  0.388400  0.633700  1
  H  H174  1  0.116300  0.338200  0.672100  1
  H  H175  1  0.177600  0.314000  0.588500  1
  H  H176  1  0.074500  0.297200  0.829600  1
  H  H177  1  0.147500  0.264300  0.912100  1
  H  H178  1  0.037900  0.239200  0.897000  1
  H  H179  1  -0.020100  0.174900  0.748500  1
  H  H180  1  0.055600  0.146300  0.680600  1
  H  H181  1  0.026900  0.225300  0.677100  1
  H  H182  1  0.074600  0.113800  0.520000  1
  H  H183  1  0.429600  0.130500  0.556000  1
  H  H184  1  0.083500  -0.021200  0.247500  1
  H  H185  1  0.442200  -0.001800  0.280600  1
  H  H186  1  0.429300  -0.118400  0.055600  1
  H  H187  1  0.275300  -0.254600  0.077200  1
  H  H188  1  0.172800  -0.086700  -0.058300  1
  H  H189  1  0.425800  -0.035900  -0.065000  1
  H  H190  1  0.387000  -0.010800  0.031900  1
  H  H191  1  0.312500  -0.028800  -0.058600  1
  H  H192  1  0.327000  -0.157800  -0.121300  1
  H  H193  1  0.388700  -0.208100  -0.049400  1
  H  H194  1  0.441400  -0.149300  -0.103100  1
  H  H195  1  0.394500  -0.201000  0.236200  1
  H  H196  1  0.432300  -0.222700  0.137300  1
  H  H197  1  0.390800  -0.279200  0.203900  1
  H  H198  1  0.219300  -0.286100  0.220000  1
  H  H199  1  0.144600  -0.234400  0.164400  1
  H  H200  1  0.216100  -0.208100  0.252700  1
  H  H201  1  0.016000  -0.080800  -0.015300  1
  H  H202  1  0.088400  -0.046000  0.066000  1
  H  H203  1  0.047400  -0.120900  0.081800  1
  H  H204  1  0.106400  -0.218700  -0.016900  1
  H  H205  1  0.183200  -0.202800  -0.090600  1
  H  H206  1  0.074700  -0.176200  -0.111800  1
  H  H207  1  -0.401300  -0.308900  -0.297500  1
  H  H208  1  -0.252000  -0.162000  -0.281900  1
  H  H209  1  -0.130400  -0.342300  -0.333400  1
  H  H210  1  -0.391000  -0.402900  -0.395500  1
  H  H211  1  -0.321300  -0.414600  -0.299500  1
  H  H212  1  -0.277200  -0.392800  -0.395200  1
  H  H213  1  -0.303400  -0.270200  -0.455900  1
  H  H214  1  -0.377600  -0.223700  -0.405500  1
  H  H215  1  -0.414800  -0.290500  -0.463200  1
  H  H216  1  -0.365700  -0.201200  -0.134400  1
  H  H217  1  -0.405600  -0.186200  -0.242900  1
  H  H218  1  -0.362400  -0.125400  -0.175900  1
  H  H219  1  -0.193900  -0.111600  -0.133700  1
  H  H220  1  -0.116300  -0.161800  -0.172100  1
  H  H221  1  -0.177600  -0.186000  -0.088500  1
  H  H222  1  -0.074500  -0.202800  -0.329600  1
  H  H223  1  -0.147500  -0.235700  -0.412100  1
  H  H224  1  -0.037900  -0.260800  -0.397000  1
  H  H225  1  0.020100  -0.325100  -0.248500  1
  H  H226  1  -0.055600  -0.353700  -0.180600  1
  H  H227  1  -0.026900  -0.274700  -0.177100  1
  H  H228  1  -0.074600  -0.386200  -0.020000  1
  H  H229  1  -0.429600  -0.369500  -0.056000  1
  H  H230  1  -0.083500  -0.521200  0.252500  1
  H  H231  1  -0.442200  -0.501800  0.219400  1
  H  H232  1  -0.429300  -0.618400  0.444400  1
  H  H233  1  -0.275300  -0.754600  0.422800  1
  H  H234  1  -0.172800  -0.586700  0.558300  1
  H  H235  1  -0.425800  -0.535900  0.565000  1
  H  H236  1  -0.387000  -0.510800  0.468100  1
  H  H237  1  -0.312500  -0.528800  0.558600  1
  H  H238  1  -0.327000  -0.657800  0.621300  1
  H  H239  1  -0.388700  -0.708100  0.549400  1
  H  H240  1  -0.441400  -0.649300  0.603100  1
  H  H241  1  -0.394500  -0.701000  0.263800  1
  H  H242  1  -0.432300  -0.722700  0.362700  1
  H  H243  1  -0.390800  -0.779200  0.296100  1
  H  H244  1  -0.219300  -0.786100  0.280000  1
  H  H245  1  -0.144600  -0.734400  0.335600  1
  H  H246  1  -0.216100  -0.708100  0.247300  1
  H  H247  1  -0.016000  -0.580800  0.515300  1
  H  H248  1  -0.088400  -0.546000  0.434000  1
  H  H249  1  -0.047400  -0.620900  0.418200  1
  H  H250  1  -0.106400  -0.718700  0.516900  1
  H  H251  1  -0.183200  -0.702800  0.590600  1
  H  H252  1  -0.074700  -0.676200  0.611800  1
  H  H253  1  0.598700  -0.191100  0.202500  1
  H  H254  1  0.748000  -0.338000  0.218100  1
  H  H255  1  0.869600  -0.157700  0.166600  1
  H  H256  1  0.609000  -0.097100  0.104500  1
  H  H257  1  0.678700  -0.085400  0.200500  1
  H  H258  1  0.722800  -0.107200  0.104800  1
  H  H259  1  0.696600  -0.229800  0.044100  1
  H  H260  1  0.622400  -0.276300  0.094500  1
  H  H261  1  0.585200  -0.209500  0.036800  1
  H  H262  1  0.634300  -0.298800  0.365600  1
  H  H263  1  0.594400  -0.313800  0.257100  1
  H  H264  1  0.637600  -0.374600  0.324100  1
  H  H265  1  0.806100  -0.388400  0.366300  1
  H  H266  1  0.883700  -0.338200  0.327900  1
  H  H267  1  0.822400  -0.314000  0.411500  1
  H  H268  1  0.925500  -0.297200  0.170400  1
  H  H269  1  0.852500  -0.264300  0.087900  1
  H  H270  1  0.962100  -0.239200  0.103000  1
  H  H271  1  1.020100  -0.174900  0.251500  1
  H  H272  1  0.944400  -0.146300  0.319400  1
  H  H273  1  0.973100  -0.225300  0.322900  1
  H  H274  1  0.925400  -0.113800  0.480000  1
  H  H275  1  0.570400  -0.130500  0.444000  1
  H  H276  1  0.916500  0.021200  0.752500  1
  H  H277  1  0.557800  0.001800  0.719400  1
  H  H278  1  0.570700  0.118400  0.944400  1
  H  H279  1  0.724700  0.254600  0.922800  1
  H  H280  1  0.827200  0.086700  1.058300  1
  H  H281  1  0.574200  0.035900  1.065000  1
  H  H282  1  0.613000  0.010800  0.968100  1
  H  H283  1  0.687500  0.028800  1.058600  1
  H  H284  1  0.673000  0.157800  1.121300  1
  H  H285  1  0.611300  0.208100  1.049400  1
  H  H286  1  0.558600  0.149300  1.103100  1
  H  H287  1  0.605500  0.201000  0.763800  1
  H  H288  1  0.567700  0.222700  0.862700  1
  H  H289  1  0.609200  0.279200  0.796100  1
  H  H290  1  0.780700  0.286100  0.780000  1
  H  H291  1  0.855400  0.234400  0.835600  1
  H  H292  1  0.783900  0.208100  0.747300  1
  H  H293  1  0.984000  0.080800  1.015300  1
  H  H294  1  0.911600  0.046000  0.934000  1
  H  H295  1  0.952600  0.120900  0.918200  1
  H  H296  1  0.893600  0.218700  1.016900  1
  H  H297  1  0.816800  0.202800  1.090600  1
  H  H298  1  0.925300  0.176200  1.111800  1
  H  H299  1  0.401300  0.308900  1.297500  1
  H  H300  1  0.252000  0.162000  1.281900  1
  H  H301  1  0.130400  0.342300  1.333400  1
  H  H302  1  0.391000  0.402900  1.395500  1
  H  H303  1  0.321300  0.414600  1.299500  1
  H  H304  1  0.277200  0.392800  1.395200  1
  H  H305  1  0.303400  0.270200  1.455900  1
  H  H306  1  0.377600  0.223700  1.405500  1
  H  H307  1  0.414800  0.290500  1.463200  1
  H  H308  1  0.365700  0.201200  1.134400  1
  H  H309  1  0.405600  0.186200  1.242900  1
  H  H310  1  0.362400  0.125400  1.175900  1
  H  H311  1  0.193900  0.111600  1.133700  1
  H  H312  1  0.116300  0.161800  1.172100  1
  H  H313  1  0.177600  0.186000  1.088500  1
  H  H314  1  0.074500  0.202800  1.329600  1
  H  H315  1  0.147500  0.235700  1.412100  1
  H  H316  1  0.037900  0.260800  1.397000  1
  H  H317  1  -0.020100  0.325100  1.248500  1
  H  H318  1  0.055600  0.353700  1.180600  1
  H  H319  1  0.026900  0.274700  1.177100  1
  H  H320  1  0.074600  0.386200  1.020000  1
  H  H321  1  0.429600  0.369500  1.056000  1
  H  H322  1  0.083500  0.521200  0.747500  1
  H  H323  1  0.442200  0.501800  0.780600  1
  H  H324  1  0.429300  0.618400  0.555600  1
  H  H325  1  0.275300  0.754600  0.577200  1
  H  H326  1  0.172800  0.586700  0.441700  1
  H  H327  1  0.425800  0.535900  0.435000  1
  H  H328  1  0.387000  0.510800  0.531900  1
  H  H329  1  0.312500  0.528800  0.441400  1
  H  H330  1  0.327000  0.657800  0.378700  1
  H  H331  1  0.388700  0.708100  0.450600  1
  H  H332  1  0.441400  0.649300  0.396900  1
  H  H333  1  0.394500  0.701000  0.736200  1
  H  H334  1  0.432300  0.722700  0.637300  1
  H  H335  1  0.390800  0.779200  0.703900  1
  H  H336  1  0.219300  0.786100  0.720000  1
  H  H337  1  0.144600  0.734400  0.664400  1
  H  H338  1  0.216100  0.708100  0.752700  1
  H  H339  1  0.016000  0.580800  0.484700  1
  H  H340  1  0.088400  0.546000  0.566000  1
  H  H341  1  0.047400  0.620900  0.581800  1
  H  H342  1  0.106400  0.718700  0.483100  1
  H  H343  1  0.183200  0.702800  0.409400  1
  H  H344  1  0.074700  0.676200  0.388200  1
  Si  Si345  1  0.238810  0.219630  0.748270  1.0
  Si  Si346  1  0.264630  -0.134120  0.076410  1
  Si  Si347  1  -0.238810  -0.280370  -0.248270  1.0
  Si  Si348  1  -0.264630  -0.634120  0.423590  1
  Si  Si349  1  0.761190  -0.219630  0.251730  1.0
  Si  Si350  1  0.735370  0.134120  0.923590  1
  Si  Si351  1  0.238810  0.280370  1.248270  1.0
  Si  Si352  1  0.264630  0.634120  0.576410  1
