# generated using pymatgen
data_SiH25C22
_symmetry_space_group_name_H-M   'P 1'
_cell_length_a   7.18770000
_cell_length_b   7.87040000
_cell_length_c   16.47940000
_cell_angle_alpha   91.92360000
_cell_angle_beta   102.73700000
_cell_angle_gamma   90.96320000
_symmetry_Int_Tables_number   1
_chemical_formula_structural   SiH25C22
_chemical_formula_sum   'Si2 H50 C44'
_cell_volume   908.50790711
_cell_formula_units_Z   2
loop_
 _symmetry_equiv_pos_site_id
 _symmetry_equiv_pos_as_xyz
  1  'x, y, z'
loop_
 _atom_site_type_symbol
 _atom_site_label
 _atom_site_symmetry_multiplicity
 _atom_site_fract_x
 _atom_site_fract_y
 _atom_site_fract_z
 _atom_site_occupancy
  C  C1  1  0.549600  0.698800  0.735200  1
  C  C2  1  0.615300  1.038900  0.825320  1
  C  C3  1  0.748000  0.710800  0.916180  1
  C  C4  1  0.313200  0.790700  0.857500  1
  C  C5  1  0.537000  0.633200  0.666580  1
  C  C6  1  0.459800  1.126800  0.763090  1
  C  C7  1  0.810100  1.063400  0.801360  1
  C  C8  1  0.763200  0.794100  1.003170  1
  C  C9  1  0.726500  0.516900  0.918240  1
  C  C10  1  0.237300  0.613700  0.856400  1
  C  C11  1  0.519700  0.562800  0.583380  1
  C  C12  1  0.105000  0.539500  0.799800  1
  C  C13  1  0.362300  0.455500  0.546970  1
  C  C14  1  0.659000  0.608000  0.538440  1
  C  C15  1  0.222200  0.408200  0.590370  1
  C  C16  1  0.341000  0.392000  0.461560  1
  C  C17  1  0.637700  0.544500  0.453030  1
  C  C18  1  0.819600  0.711700  0.574450  1
  C  C19  1  0.064700  0.307200  0.554130  1
  C  C20  1  0.480300  0.437200  0.416620  1
  C  C21  1  0.180400  0.288300  0.425550  1
  C  C22  1  0.777800  0.591800  0.409630  1
  C  C23  1  0.958600  0.753200  0.531340  1
  C  C24  1  -0.079900  0.260800  0.597660  1
  C  C25  1  0.041400  0.246800  0.468660  1
  C  C26  1  0.463000  0.366800  0.333420  1
  C  C27  1  0.935300  0.692800  0.445870  1
  C  C28  1  1.123900  0.854800  0.568070  1
  C  C29  1  -0.232800  0.164000  0.560360  1
  C  C30  1  -0.123900  0.145200  0.431930  1
  C  C31  1  0.450400  0.301200  0.264800  1
  C  C32  1  1.079900  0.739200  0.402340  1
  C  C33  1  1.256500  0.894300  0.524350  1
  C  C34  1  -0.256500  0.105700  0.475650  1
  C  C35  1  1.232800  0.836000  0.439640  1
  C  C36  1  0.384700  -0.038900  0.174680  1
  C  C37  1  0.252000  0.289200  0.083820  1
  C  C38  1  0.686800  0.209300  0.142500  1
  C  C39  1  0.540200  -0.126800  0.236910  1
  C  C40  1  0.189900  -0.063400  0.198640  1
  C  C41  1  0.236800  0.205900  -0.003170  1
  C  C42  1  0.273500  0.483100  0.081760  1
  C  C43  1  0.762700  0.386300  0.143600  1
  C  C44  1  0.895000  0.460500  0.200200  1
  H  H45  1  0.625100  1.096900  0.881100  1
  H  H46  1  0.872400  0.734600  0.900500  1
  H  H47  1  0.316300  0.845300  0.912800  1
  H  H48  1  0.224400  0.854900  0.815600  1
  H  H49  1  0.498600  1.245500  0.758800  1
  H  H50  1  0.340100  1.122800  0.782300  1
  H  H51  1  0.441200  1.068200  0.708400  1
  H  H52  1  0.806500  1.004400  0.747700  1
  H  H53  1  0.910800  1.016300  0.844200  1
  H  H54  1  0.836300  1.184900  0.797100  1
  H  H55  1  0.641400  0.779500  1.019900  1
  H  H56  1  0.793800  0.915700  1.001900  1
  H  H57  1  0.864200  0.740300  1.043300  1
  H  H58  1  0.836100  0.472700  0.957600  1
  H  H59  1  0.721000  0.466500  0.862500  1
  H  H60  1  0.608800  0.487600  0.935900  1
  H  H61  1  0.292100  0.547800  0.902400  1
  H  H62  1  0.045100  0.599400  0.752300  1
  H  H63  1  0.067600  0.425000  0.805600  1
  H  H64  1  0.236600  0.447300  0.646600  1
  H  H65  1  0.833200  0.754700  0.630100  1
  H  H66  1  0.166800  0.245300  0.369900  1
  H  H67  1  0.763400  0.552700  0.353400  1
  H  H68  1  -0.067400  0.299300  0.653900  1
  H  H69  1  1.141200  0.895500  0.624200  1
  H  H70  1  -0.325900  0.134100  0.590700  1
  H  H71  1  -0.141200  0.104500  0.375800  1
  H  H72  1  1.067400  0.700700  0.346100  1
  H  H73  1  1.366100  0.961200  0.550200  1
  H  H74  1  -0.366100  0.038800  0.449800  1
  H  H75  1  1.325900  0.865900  0.409300  1
  H  H76  1  0.374900  -0.096900  0.118900  1
  H  H77  1  0.127600  0.265400  0.099500  1
  H  H78  1  0.683700  0.154700  0.087200  1
  H  H79  1  0.775600  0.145100  0.184400  1
  H  H80  1  0.501400  -0.245500  0.241200  1
  H  H81  1  0.659900  -0.122800  0.217700  1
  H  H82  1  0.558800  -0.068200  0.291600  1
  H  H83  1  0.193500  -0.004400  0.252300  1
  H  H84  1  0.089200  -0.016300  0.155800  1
  H  H85  1  0.163700  -0.184900  0.202900  1
  H  H86  1  0.358600  0.220500  -0.019900  1
  H  H87  1  0.206200  0.084300  -0.001900  1
  H  H88  1  0.135800  0.259700  -0.043300  1
  H  H89  1  0.163900  0.527300  0.042400  1
  H  H90  1  0.279000  0.533500  0.137500  1
  H  H91  1  0.391200  0.512400  0.064100  1
  H  H92  1  0.707900  0.452200  0.097600  1
  H  H93  1  0.954900  0.400600  0.247700  1
  H  H94  1  0.932400  0.575000  0.194400  1
  Si  Si95  1  0.559360  0.808260  0.835620  1.0
  Si  Si96  1  0.440640  0.191740  0.164380  1
