# generated using pymatgen
data_SiH40C32SNO
_symmetry_space_group_name_H-M   'P 1'
_cell_length_a   11.65660000
_cell_length_b   35.65630000
_cell_length_c   14.76980000
_cell_angle_alpha   90.00000000
_cell_angle_beta   103.72000000
_cell_angle_gamma   90.00000000
_symmetry_Int_Tables_number   1
_chemical_formula_structural   SiH40C32SNO
_chemical_formula_sum   'Si8 H320 C256 S8 N8 O8'
_cell_volume   5963.62824005
_cell_formula_units_Z   8
loop_
 _symmetry_equiv_pos_site_id
 _symmetry_equiv_pos_as_xyz
  1  'x, y, z'
loop_
 _atom_site_type_symbol
 _atom_site_label
 _atom_site_symmetry_multiplicity
 _atom_site_fract_x
 _atom_site_fract_y
 _atom_site_fract_z
 _atom_site_occupancy
  C  C1  1  0.595100  0.347200  0.627000  1
  C  C2  1  0.404800  0.401250  0.553400  1
  C  C3  1  0.679200  0.418860  0.557800  1
  C  C4  1  0.586800  0.415980  0.737600  1
  C  C5  1  0.603800  0.313650  0.634500  1
  C  C6  1  0.372200  0.383170  0.458200  1
  C  C7  1  0.352500  0.440160  0.553600  1
  C  C8  1  0.685800  0.399310  0.467600  1
  C  C9  1  0.663600  0.461490  0.542900  1
  C  C10  1  0.503100  0.397030  0.789500  1
  C  C11  1  0.712700  0.411430  0.794000  1
  C  C12  1  0.607100  0.273610  0.640600  1
  C  C13  1  0.708400  0.255210  0.693500  1
  C  C14  1  0.508800  0.253100  0.591300  1
  C  C15  1  0.710200  0.214970  0.697800  1
  C  C16  1  0.806200  0.276080  0.743000  1
  C  C17  1  0.406900  0.271690  0.539500  1
  C  C18  1  0.510900  0.212830  0.593200  1
  C  C19  1  0.612100  0.194330  0.647000  1
  C  C20  1  0.812300  0.196850  0.752100  1
  C  C21  1  0.904800  0.257860  0.793600  1
  C  C22  1  0.312000  0.251790  0.491000  1
  C  C23  1  0.411400  0.192500  0.542600  1
  C  C24  1  0.616600  0.154370  0.649700  1
  C  C25  1  0.906700  0.217830  0.797800  1
  C  C26  1  1.012500  0.273900  0.847700  1
  C  C27  1  0.204200  0.265910  0.435500  1
  C  C28  1  0.314500  0.211680  0.493400  1
  C  C29  1  0.622800  0.120870  0.653300  1
  C  C30  1  1.093000  0.247860  0.889000  1
  C  C31  1  0.125300  0.238590  0.397600  1
  C  C32  1  1.212300  0.249100  0.951300  1
  C  C33  1  0.005000  0.238810  0.336100  1
  C  C34  1  0.577200  0.052280  0.533100  1
  C  C35  1  0.526500  0.052650  0.727000  1
  C  C36  1  0.787600  0.055150  0.712300  1
  C  C37  1  0.652700  0.069600  0.469000  1
  C  C38  1  0.448700  0.060380  0.495400  1
  C  C39  1  0.515600  0.009600  0.728900  1
  C  C40  1  0.549200  0.068600  0.825000  1
  C  C41  1  0.820100  0.015900  0.680900  1
  C  C42  1  0.882900  0.083760  0.698900  1
  C  C43  1  1.388400  0.281560  1.035100  1
  C  C44  1  1.237100  0.319400  0.933900  1
  C  C45  1  -0.024300  0.309030  0.354400  1
  C  C46  1  -0.174200  0.270200  0.253600  1
  C  C47  1  1.419200  0.322990  1.049900  1
  C  C48  1  1.353700  0.340740  0.958300  1
  C  C49  1  -0.142500  0.329890  0.330100  1
  C  C50  1  -0.210500  0.311150  0.239900  1
  C  C51  1  0.904900  -0.152800  0.873000  1
  C  C52  1  1.095200  -0.098750  0.946600  1
  C  C53  1  0.820800  -0.081140  0.942200  1
  C  C54  1  0.913200  -0.084020  0.762400  1
  C  C55  1  0.896200  -0.186350  0.865500  1
  C  C56  1  1.127800  -0.116830  1.041800  1
  C  C57  1  1.147500  -0.059840  0.946400  1
  C  C58  1  0.814200  -0.100690  1.032400  1
  C  C59  1  0.836400  -0.038510  0.957100  1
  C  C60  1  0.996900  -0.102970  0.710500  1
  C  C61  1  0.787300  -0.088570  0.706000  1
  C  C62  1  0.892900  -0.226390  0.859400  1
  C  C63  1  0.791600  -0.244790  0.806500  1
  C  C64  1  0.991200  -0.246900  0.908700  1
  C  C65  1  0.789800  -0.285030  0.802200  1
  C  C66  1  0.693800  -0.223920  0.757000  1
  C  C67  1  1.093100  -0.228310  0.960500  1
  C  C68  1  0.989100  -0.287170  0.906800  1
  C  C69  1  0.887900  -0.305670  0.853000  1
  C  C70  1  0.687700  -0.303150  0.747900  1
  C  C71  1  0.595200  -0.242140  0.706400  1
  C  C72  1  1.188000  -0.248210  1.009000  1
  C  C73  1  1.088600  -0.307500  0.957400  1
  C  C74  1  0.883400  -0.345630  0.850300  1
  C  C75  1  0.593300  -0.282170  0.702200  1
  C  C76  1  0.487500  -0.226100  0.652300  1
  C  C77  1  1.295800  -0.234090  1.064500  1
  C  C78  1  1.185500  -0.288320  1.006600  1
  C  C79  1  0.877200  -0.379130  0.846700  1
  C  C80  1  0.407000  -0.252140  0.611000  1
  C  C81  1  1.374700  -0.261410  1.102400  1
  C  C82  1  0.287700  -0.250900  0.548700  1
  C  C83  1  1.495000  -0.261190  1.163900  1
  C  C84  1  0.922800  -0.447720  0.966900  1
  C  C85  1  0.973500  -0.447350  0.773000  1
  C  C86  1  0.712400  -0.444850  0.787700  1
  C  C87  1  0.847300  -0.430400  1.031000  1
  C  C88  1  1.051300  -0.439620  1.004600  1
  C  C89  1  0.984400  -0.490400  0.771100  1
  C  C90  1  0.950800  -0.431400  0.675000  1
  C  C91  1  0.679900  -0.484100  0.819100  1
  C  C92  1  0.617100  -0.416240  0.801100  1
  C  C93  1  0.111600  -0.218440  0.464900  1
  C  C94  1  0.262900  -0.180600  0.566100  1
  C  C95  1  1.524300  -0.190970  1.145600  1
  C  C96  1  1.674200  -0.229800  1.246400  1
  C  C97  1  0.080800  -0.177010  0.450100  1
  C  C98  1  0.146300  -0.159260  0.541700  1
  C  C99  1  1.642500  -0.170110  1.169900  1
  C  C100  1  1.710500  -0.188850  1.260100  1
  C  C101  1  0.404900  -0.347200  0.373000  1
  C  C102  1  0.595200  -0.401250  0.446600  1
  C  C103  1  0.320800  -0.418860  0.442200  1
  C  C104  1  0.413200  -0.415980  0.262400  1
  C  C105  1  0.396200  -0.313650  0.365500  1
  C  C106  1  0.627800  -0.383170  0.541800  1
  C  C107  1  0.647500  -0.440160  0.446400  1
  C  C108  1  0.314200  -0.399310  0.532400  1
  C  C109  1  0.336400  -0.461490  0.457100  1
  C  C110  1  0.496900  -0.397030  0.210500  1
  C  C111  1  0.287300  -0.411430  0.206000  1
  C  C112  1  0.392900  -0.273610  0.359400  1
  C  C113  1  0.291600  -0.255210  0.306500  1
  C  C114  1  0.491200  -0.253100  0.408700  1
  C  C115  1  0.289800  -0.214970  0.302200  1
  C  C116  1  0.193800  -0.276080  0.257000  1
  C  C117  1  0.593100  -0.271690  0.460500  1
  C  C118  1  0.489100  -0.212830  0.406800  1
  C  C119  1  0.387900  -0.194330  0.353000  1
  C  C120  1  0.187700  -0.196850  0.247900  1
  C  C121  1  0.095200  -0.257860  0.206400  1
  C  C122  1  0.688000  -0.251790  0.509000  1
  C  C123  1  0.588600  -0.192500  0.457400  1
  C  C124  1  0.383400  -0.154370  0.350300  1
  C  C125  1  0.093300  -0.217830  0.202200  1
  C  C126  1  -0.012500  -0.273900  0.152300  1
  C  C127  1  0.795800  -0.265910  0.564500  1
  C  C128  1  0.685500  -0.211680  0.506600  1
  C  C129  1  0.377200  -0.120870  0.346700  1
  C  C130  1  -0.093000  -0.247860  0.111000  1
  C  C131  1  0.874700  -0.238590  0.602400  1
  C  C132  1  -0.212300  -0.249100  0.048700  1
  C  C133  1  0.995000  -0.238810  0.663900  1
  C  C134  1  0.422800  -0.052280  0.466900  1
  C  C135  1  0.473500  -0.052650  0.273000  1
  C  C136  1  0.212400  -0.055150  0.287700  1
  C  C137  1  0.347300  -0.069600  0.531000  1
  C  C138  1  0.551300  -0.060380  0.504600  1
  C  C139  1  0.484400  -0.009600  0.271100  1
  C  C140  1  0.450800  -0.068600  0.175000  1
  C  C141  1  0.179900  -0.015900  0.319100  1
  C  C142  1  0.117100  -0.083760  0.301100  1
  C  C143  1  -0.388400  -0.281560  -0.035100  1
  C  C144  1  -0.237100  -0.319400  0.066100  1
  C  C145  1  1.024300  -0.309030  0.645600  1
  C  C146  1  1.174200  -0.270200  0.746400  1
  C  C147  1  -0.419200  -0.322990  -0.049900  1
  C  C148  1  -0.353700  -0.340740  0.041700  1
  C  C149  1  1.142500  -0.329890  0.669900  1
  C  C150  1  1.210500  -0.311150  0.760100  1
  C  C151  1  0.095100  0.152800  0.127000  1
  C  C152  1  -0.095200  0.098750  0.053400  1
  C  C153  1  0.179200  0.081140  0.057800  1
  C  C154  1  0.086800  0.084020  0.237600  1
  C  C155  1  0.103800  0.186350  0.134500  1
  C  C156  1  -0.127800  0.116830  -0.041800  1
  C  C157  1  -0.147500  0.059840  0.053600  1
  C  C158  1  0.185800  0.100690  -0.032400  1
  C  C159  1  0.163600  0.038510  0.042900  1
  C  C160  1  0.003100  0.102970  0.289500  1
  C  C161  1  0.212700  0.088570  0.294000  1
  C  C162  1  0.107100  0.226390  0.140600  1
  C  C163  1  0.208400  0.244790  0.193500  1
  C  C164  1  0.008800  0.246900  0.091300  1
  C  C165  1  0.210200  0.285030  0.197800  1
  C  C166  1  0.306200  0.223920  0.243000  1
  C  C167  1  -0.093100  0.228310  0.039500  1
  C  C168  1  0.010900  0.287170  0.093200  1
  C  C169  1  0.112100  0.305670  0.147000  1
  C  C170  1  0.312300  0.303150  0.252100  1
  C  C171  1  0.404800  0.242140  0.293600  1
  C  C172  1  -0.188000  0.248210  -0.009000  1
  C  C173  1  -0.088600  0.307500  0.042600  1
  C  C174  1  0.116600  0.345630  0.149700  1
  C  C175  1  0.406700  0.282170  0.297800  1
  C  C176  1  0.512500  0.226100  0.347700  1
  C  C177  1  -0.295800  0.234090  -0.064500  1
  C  C178  1  -0.185500  0.288320  -0.006600  1
  C  C179  1  0.122800  0.379130  0.153300  1
  C  C180  1  0.593000  0.252140  0.389000  1
  C  C181  1  -0.374700  0.261410  -0.102400  1
  C  C182  1  0.712300  0.250900  0.451300  1
  C  C183  1  -0.495000  0.261190  -0.163900  1
  C  C184  1  0.077200  0.447720  0.033100  1
  C  C185  1  0.026500  0.447350  0.227000  1
  C  C186  1  0.287600  0.444850  0.212300  1
  C  C187  1  0.152700  0.430400  -0.031000  1
  C  C188  1  -0.051300  0.439620  -0.004600  1
  C  C189  1  0.015600  0.490400  0.228900  1
  C  C190  1  0.049200  0.431400  0.325000  1
  C  C191  1  0.320100  0.484100  0.180900  1
  C  C192  1  0.382900  0.416240  0.198900  1
  C  C193  1  0.888400  0.218440  0.535100  1
  C  C194  1  0.737100  0.180600  0.433900  1
  C  C195  1  -0.524300  0.190970  -0.145600  1
  C  C196  1  -0.674200  0.229800  -0.246400  1
  C  C197  1  0.919200  0.177010  0.549900  1
  C  C198  1  0.853700  0.159260  0.458300  1
  C  C199  1  -0.642500  0.170110  -0.169900  1
  C  C200  1  -0.710500  0.188850  -0.260100  1
  C  C201  1  0.206000  0.056900  0.723900  1
  C  C202  1  0.177300  0.063630  0.630200  1
  C  C203  1  0.200300  0.020400  0.758400  1
  C  C204  1  0.141300  0.033430  0.570300  1
  C  C205  1  0.180800  0.101800  0.594800  1
  C  C206  1  0.166200  -0.008600  0.698900  1
  C  C207  1  0.138200  -0.001500  0.602600  1
  C  C208  1  0.294000  0.556900  0.776100  1
  C  C209  1  0.322700  0.563630  0.869800  1
  C  C210  1  0.299700  0.520400  0.741600  1
  C  C211  1  0.358700  0.533430  0.929700  1
  C  C212  1  0.319200  0.601800  0.905200  1
  C  C213  1  0.333800  0.491400  0.801100  1
  C  C214  1  0.361800  0.498500  0.897400  1
  C  C215  1  0.794000  0.943100  0.276100  1
  C  C216  1  0.822700  0.936370  0.369800  1
  C  C217  1  0.799700  0.979600  0.241600  1
  C  C218  1  0.858700  0.966570  0.429700  1
  C  C219  1  0.819200  0.898200  0.405200  1
  C  C220  1  0.833800  1.008600  0.301100  1
  C  C221  1  0.861800  1.001500  0.397400  1
  C  C222  1  0.706000  0.443100  0.223900  1
  C  C223  1  0.677300  0.436370  0.130200  1
  C  C224  1  0.700300  0.479600  0.258400  1
  C  C225  1  0.641300  0.466570  0.070300  1
  C  C226  1  0.680800  0.398200  0.094800  1
  C  C227  1  0.666200  0.508600  0.198900  1
  C  C228  1  0.638200  0.501500  0.102600  1
  C  C229  1  0.676900  0.132600  0.181800  1
  C  C230  1  0.562300  0.120400  0.150400  1
  C  C231  1  0.706000  0.169300  0.176400  1
  C  C232  1  0.475000  0.146500  0.112300  1
  C  C233  1  0.531400  0.079400  0.156800  1
  C  C234  1  0.620000  0.194900  0.138400  1
  C  C235  1  0.503000  0.183200  0.106200  1
  C  C236  1  0.823100  0.632600  0.318200  1
  C  C237  1  0.937700  0.620400  0.349600  1
  C  C238  1  0.794000  0.669300  0.323600  1
  C  C239  1  1.025000  0.646500  0.387700  1
  C  C240  1  0.968600  0.579400  0.343200  1
  C  C241  1  0.880000  0.694900  0.361600  1
  C  C242  1  0.997000  0.683200  0.393800  1
  C  C243  1  0.323100  0.867400  0.818200  1
  C  C244  1  0.437700  0.879600  0.849600  1
  C  C245  1  0.294000  0.830700  0.823600  1
  C  C246  1  0.525000  0.853500  0.887700  1
  C  C247  1  0.468600  0.920600  0.843200  1
  C  C248  1  0.380000  0.805100  0.861600  1
  C  C249  1  0.497000  0.816800  0.893800  1
  C  C250  1  0.176900  0.367400  0.681800  1
  C  C251  1  0.062300  0.379600  0.650400  1
  C  C252  1  0.206000  0.330700  0.676400  1
  C  C253  1  -0.025000  0.353500  0.612300  1
  C  C254  1  0.031400  0.420600  0.656800  1
  C  C255  1  0.120000  0.305100  0.638400  1
  C  C256  1  0.003000  0.316800  0.606200  1
  H  H257  1  0.362600  0.385900  0.592000  1
  H  H258  1  0.757800  0.415100  0.602100  1
  H  H259  1  0.568100  0.443400  0.733500  1
  H  H260  1  0.286200  0.380700  0.438100  1
  H  H261  1  0.408600  0.358300  0.461200  1
  H  H262  1  0.400700  0.398800  0.413500  1
  H  H263  1  0.383500  0.456500  0.511600  1
  H  H264  1  0.373900  0.450400  0.616900  1
  H  H265  1  0.266300  0.438700  0.532400  1
  H  H266  1  0.614300  0.404900  0.419300  1
  H  H267  1  0.692100  0.372200  0.478000  1
  H  H268  1  0.755200  0.408300  0.447400  1
  H  H269  1  0.727100  0.471300  0.516300  1
  H  H270  1  0.666800  0.473800  0.602800  1
  H  H271  1  0.587100  0.466600  0.500100  1
  H  H272  1  0.516000  0.369900  0.790900  1
  H  H273  1  0.421100  0.402500  0.757300  1
  H  H274  1  0.518500  0.406700  0.853400  1
  H  H275  1  0.720200  0.422100  0.856200  1
  H  H276  1  0.766400  0.424500  0.762600  1
  H  H277  1  0.733000  0.384700  0.799500  1
  H  H278  1  0.804000  0.302700  0.741300  1
  H  H279  1  0.404600  0.298300  0.538400  1
  H  H280  1  0.814900  0.170300  0.756700  1
  H  H281  1  0.412000  0.165900  0.542800  1
  H  H282  1  1.026100  0.300100  0.853900  1
  H  H283  1  0.188400  0.291900  0.425700  1
  H  H284  1  0.587800  0.024400  0.533000  1
  H  H285  1  0.447000  0.062200  0.693500  1
  H  H286  1  0.793200  0.053600  0.780800  1
  H  H287  1  0.627700  0.058900  0.406300  1
  H  H288  1  0.736300  0.063900  0.494800  1
  H  H289  1  0.641400  0.096800  0.465600  1
  H  H290  1  0.436400  0.087600  0.491000  1
  H  H291  1  0.403300  0.049700  0.537200  1
  H  H292  1  0.422300  0.049200  0.433400  1
  H  H293  1  0.593400  -0.001400  0.755300  1
  H  H294  1  0.485500  0.000300  0.665200  1
  H  H295  1  0.461000  0.002500  0.767200  1
  H  H296  1  0.487400  0.060000  0.855000  1
  H  H297  1  0.548500  0.096100  0.822000  1
  H  H298  1  0.626400  0.060000  0.861200  1
  H  H299  1  0.816400  0.016300  0.613900  1
  H  H300  1  0.764300  -0.002800  0.693800  1
  H  H301  1  0.900300  0.009300  0.715100  1
  H  H302  1  0.960600  0.075800  0.735400  1
  H  H303  1  0.864200  0.108600  0.719900  1
  H  H304  1  0.884000  0.084900  0.632800  1
  H  H305  1  1.445800  0.268500  1.006300  1
  H  H306  1  1.387300  0.269100  1.094800  1
  H  H307  1  1.178000  0.331000  0.963400  1
  H  H308  1  1.204800  0.318400  0.865600  1
  H  H309  1  0.034300  0.321100  0.325000  1
  H  H310  1  0.008100  0.308000  0.422600  1
  H  H311  1  -0.229400  0.256100  0.282500  1
  H  H312  1  -0.172500  0.258300  0.193300  1
  H  H313  1  1.505500  0.327100  1.061000  1
  H  H314  1  1.391300  0.333200  1.103200  1
  H  H315  1  1.340400  0.367800  0.966300  1
  H  H316  1  1.398100  0.337500  0.909500  1
  H  H317  1  -0.185100  0.327000  0.380200  1
  H  H318  1  -0.130600  0.356900  0.320100  1
  H  H319  1  -0.296800  0.314100  0.231900  1
  H  H320  1  -0.187500  0.321900  0.184900  1
  H  H321  1  1.137400  -0.114100  0.908000  1
  H  H322  1  0.742200  -0.084900  0.897900  1
  H  H323  1  0.931900  -0.056600  0.766500  1
  H  H324  1  1.213800  -0.119300  1.061900  1
  H  H325  1  1.091400  -0.141700  1.038800  1
  H  H326  1  1.099300  -0.101200  1.086500  1
  H  H327  1  1.116500  -0.043500  0.988400  1
  H  H328  1  1.126100  -0.049600  0.883100  1
  H  H329  1  1.233700  -0.061300  0.967600  1
  H  H330  1  0.885700  -0.095100  1.080700  1
  H  H331  1  0.807900  -0.127800  1.022000  1
  H  H332  1  0.744800  -0.091700  1.052600  1
  H  H333  1  0.772900  -0.028700  0.983700  1
  H  H334  1  0.833200  -0.026200  0.897200  1
  H  H335  1  0.912900  -0.033400  0.999900  1
  H  H336  1  0.984000  -0.130100  0.709100  1
  H  H337  1  1.078900  -0.097500  0.742700  1
  H  H338  1  0.981500  -0.093300  0.646600  1
  H  H339  1  0.779800  -0.077900  0.643800  1
  H  H340  1  0.733600  -0.075500  0.737400  1
  H  H341  1  0.767000  -0.115300  0.700500  1
  H  H342  1  0.696000  -0.197300  0.758700  1
  H  H343  1  1.095400  -0.201700  0.961600  1
  H  H344  1  0.685100  -0.329700  0.743300  1
  H  H345  1  1.088000  -0.334100  0.957200  1
  H  H346  1  0.473900  -0.199900  0.646100  1
  H  H347  1  1.311600  -0.208100  1.074300  1
  H  H348  1  0.912200  -0.475600  0.967000  1
  H  H349  1  1.053000  -0.437800  0.806500  1
  H  H350  1  0.706800  -0.446400  0.719200  1
  H  H351  1  0.872300  -0.441100  1.093700  1
  H  H352  1  0.763700  -0.436100  1.005200  1
  H  H353  1  0.858600  -0.403200  1.034400  1
  H  H354  1  1.063600  -0.412400  1.009000  1
  H  H355  1  1.096700  -0.450300  0.962800  1
  H  H356  1  1.077700  -0.450800  1.066600  1
  H  H357  1  0.906600  -0.501400  0.744700  1
  H  H358  1  1.014500  -0.499700  0.834800  1
  H  H359  1  1.039000  -0.497500  0.732800  1
  H  H360  1  1.012600  -0.440000  0.645000  1
  H  H361  1  0.951500  -0.403900  0.678000  1
  H  H362  1  0.873600  -0.440000  0.638800  1
  H  H363  1  0.683600  -0.483700  0.886100  1
  H  H364  1  0.735700  -0.502800  0.806200  1
  H  H365  1  0.599700  -0.490700  0.784900  1
  H  H366  1  0.539400  -0.424200  0.764600  1
  H  H367  1  0.635800  -0.391400  0.780100  1
  H  H368  1  0.616000  -0.415100  0.867200  1
  H  H369  1  0.054200  -0.231500  0.493700  1
  H  H370  1  0.112700  -0.230900  0.405200  1
  H  H371  1  0.322000  -0.169000  0.536600  1
  H  H372  1  0.295200  -0.181600  0.634400  1
  H  H373  1  1.465700  -0.178900  1.175000  1
  H  H374  1  1.491900  -0.192000  1.077400  1
  H  H375  1  1.729400  -0.243900  1.217500  1
  H  H376  1  1.672500  -0.241700  1.306700  1
  H  H377  1  -0.005500  -0.172900  0.439000  1
  H  H378  1  0.108700  -0.166800  0.396800  1
  H  H379  1  0.159600  -0.132200  0.533700  1
  H  H380  1  0.101900  -0.162500  0.590500  1
  H  H381  1  1.685100  -0.173000  1.119800  1
  H  H382  1  1.630600  -0.143100  1.179900  1
  H  H383  1  1.796800  -0.185900  1.268100  1
  H  H384  1  1.687500  -0.178100  1.315100  1
  H  H385  1  0.637400  -0.385900  0.408000  1
  H  H386  1  0.242200  -0.415100  0.397900  1
  H  H387  1  0.431900  -0.443400  0.266500  1
  H  H388  1  0.713800  -0.380700  0.561900  1
  H  H389  1  0.591400  -0.358300  0.538800  1
  H  H390  1  0.599300  -0.398800  0.586500  1
  H  H391  1  0.616500  -0.456500  0.488400  1
  H  H392  1  0.626100  -0.450400  0.383100  1
  H  H393  1  0.733700  -0.438700  0.467600  1
  H  H394  1  0.385700  -0.404900  0.580700  1
  H  H395  1  0.307900  -0.372200  0.522000  1
  H  H396  1  0.244800  -0.408300  0.552600  1
  H  H397  1  0.272900  -0.471300  0.483700  1
  H  H398  1  0.333200  -0.473800  0.397200  1
  H  H399  1  0.412900  -0.466600  0.499900  1
  H  H400  1  0.484000  -0.369900  0.209100  1
  H  H401  1  0.578900  -0.402500  0.242700  1
  H  H402  1  0.481500  -0.406700  0.146600  1
  H  H403  1  0.279800  -0.422100  0.143800  1
  H  H404  1  0.233600  -0.424500  0.237400  1
  H  H405  1  0.267000  -0.384700  0.200500  1
  H  H406  1  0.196000  -0.302700  0.258700  1
  H  H407  1  0.595400  -0.298300  0.461600  1
  H  H408  1  0.185100  -0.170300  0.243300  1
  H  H409  1  0.588000  -0.165900  0.457200  1
  H  H410  1  -0.026100  -0.300100  0.146100  1
  H  H411  1  0.811600  -0.291900  0.574300  1
  H  H412  1  0.412200  -0.024400  0.467000  1
  H  H413  1  0.553000  -0.062200  0.306500  1
  H  H414  1  0.206800  -0.053600  0.219200  1
  H  H415  1  0.372300  -0.058900  0.593700  1
  H  H416  1  0.263700  -0.063900  0.505200  1
  H  H417  1  0.358600  -0.096800  0.534400  1
  H  H418  1  0.563600  -0.087600  0.509000  1
  H  H419  1  0.596700  -0.049700  0.462800  1
  H  H420  1  0.577700  -0.049200  0.566600  1
  H  H421  1  0.406600  0.001400  0.244700  1
  H  H422  1  0.514500  -0.000300  0.334800  1
  H  H423  1  0.539000  -0.002500  0.232800  1
  H  H424  1  0.512600  -0.060000  0.145000  1
  H  H425  1  0.451500  -0.096100  0.178000  1
  H  H426  1  0.373600  -0.060000  0.138800  1
  H  H427  1  0.183600  -0.016300  0.386100  1
  H  H428  1  0.235700  0.002800  0.306200  1
  H  H429  1  0.099700  -0.009300  0.284900  1
  H  H430  1  0.039400  -0.075800  0.264600  1
  H  H431  1  0.135800  -0.108600  0.280100  1
  H  H432  1  0.116000  -0.084900  0.367200  1
  H  H433  1  -0.445800  -0.268500  -0.006300  1
  H  H434  1  -0.387300  -0.269100  -0.094800  1
  H  H435  1  -0.178000  -0.331000  0.036600  1
  H  H436  1  -0.204800  -0.318400  0.134400  1
  H  H437  1  0.965700  -0.321100  0.675000  1
  H  H438  1  0.991900  -0.308000  0.577400  1
  H  H439  1  1.229400  -0.256100  0.717500  1
  H  H440  1  1.172500  -0.258300  0.806700  1
  H  H441  1  -0.505500  -0.327100  -0.061000  1
  H  H442  1  -0.391300  -0.333200  -0.103200  1
  H  H443  1  -0.340400  -0.367800  0.033700  1
  H  H444  1  -0.398100  -0.337500  0.090500  1
  H  H445  1  1.185100  -0.327000  0.619800  1
  H  H446  1  1.130600  -0.356900  0.679900  1
  H  H447  1  1.296800  -0.314100  0.768100  1
  H  H448  1  1.187500  -0.321900  0.815100  1
  H  H449  1  -0.137400  0.114100  0.092000  1
  H  H450  1  0.257800  0.084900  0.102100  1
  H  H451  1  0.068100  0.056600  0.233500  1
  H  H452  1  -0.213800  0.119300  -0.061900  1
  H  H453  1  -0.091400  0.141700  -0.038800  1
  H  H454  1  -0.099300  0.101200  -0.086500  1
  H  H455  1  -0.116500  0.043500  0.011600  1
  H  H456  1  -0.126100  0.049600  0.116900  1
  H  H457  1  -0.233700  0.061300  0.032400  1
  H  H458  1  0.114300  0.095100  -0.080700  1
  H  H459  1  0.192100  0.127800  -0.022000  1
  H  H460  1  0.255200  0.091700  -0.052600  1
  H  H461  1  0.227100  0.028700  0.016300  1
  H  H462  1  0.166800  0.026200  0.102800  1
  H  H463  1  0.087100  0.033400  0.000100  1
  H  H464  1  0.016000  0.130100  0.290900  1
  H  H465  1  -0.078900  0.097500  0.257300  1
  H  H466  1  0.018500  0.093300  0.353400  1
  H  H467  1  0.220200  0.077900  0.356200  1
  H  H468  1  0.266400  0.075500  0.262600  1
  H  H469  1  0.233000  0.115300  0.299500  1
  H  H470  1  0.304000  0.197300  0.241300  1
  H  H471  1  -0.095400  0.201700  0.038400  1
  H  H472  1  0.314900  0.329700  0.256700  1
  H  H473  1  -0.088000  0.334100  0.042800  1
  H  H474  1  0.526100  0.199900  0.353900  1
  H  H475  1  -0.311600  0.208100  -0.074300  1
  H  H476  1  0.087800  0.475600  0.033000  1
  H  H477  1  -0.053000  0.437800  0.193500  1
  H  H478  1  0.293200  0.446400  0.280800  1
  H  H479  1  0.127700  0.441100  -0.093700  1
  H  H480  1  0.236300  0.436100  -0.005200  1
  H  H481  1  0.141400  0.403200  -0.034400  1
  H  H482  1  -0.063600  0.412400  -0.009000  1
  H  H483  1  -0.096700  0.450300  0.037200  1
  H  H484  1  -0.077700  0.450800  -0.066600  1
  H  H485  1  0.093400  0.501400  0.255300  1
  H  H486  1  -0.014500  0.499700  0.165200  1
  H  H487  1  -0.039000  0.497500  0.267200  1
  H  H488  1  -0.012600  0.440000  0.355000  1
  H  H489  1  0.048500  0.403900  0.322000  1
  H  H490  1  0.126400  0.440000  0.361200  1
  H  H491  1  0.316400  0.483700  0.113900  1
  H  H492  1  0.264300  0.502800  0.193800  1
  H  H493  1  0.400300  0.490700  0.215100  1
  H  H494  1  0.460600  0.424200  0.235400  1
  H  H495  1  0.364200  0.391400  0.219900  1
  H  H496  1  0.384000  0.415100  0.132800  1
  H  H497  1  0.945800  0.231500  0.506300  1
  H  H498  1  0.887300  0.230900  0.594800  1
  H  H499  1  0.678000  0.169000  0.463400  1
  H  H500  1  0.704800  0.181600  0.365600  1
  H  H501  1  -0.465700  0.178900  -0.175000  1
  H  H502  1  -0.491900  0.192000  -0.077400  1
  H  H503  1  -0.729400  0.243900  -0.217500  1
  H  H504  1  -0.672500  0.241700  -0.306700  1
  H  H505  1  1.005500  0.172900  0.561000  1
  H  H506  1  0.891300  0.166800  0.603200  1
  H  H507  1  0.840400  0.132200  0.466300  1
  H  H508  1  0.898100  0.162500  0.409500  1
  H  H509  1  -0.685100  0.173000  -0.119800  1
  H  H510  1  -0.630600  0.143100  -0.179900  1
  H  H511  1  -0.796800  0.185900  -0.268100  1
  H  H512  1  -0.687500  0.178100  -0.315100  1
  H  H513  1  0.229900  0.077100  0.766100  1.0
  H  H514  1  0.220500  0.016100  0.823700  1
  H  H515  1  0.118400  0.037800  0.505000  1
  H  H516  1  0.150100  0.119300  0.634500  1
  H  H517  1  0.132200  0.103200  0.530900  1
  H  H518  1  0.262500  0.108500  0.595300  1
  H  H519  1  0.161300  -0.033200  0.721900  1
  H  H520  1  0.116900  -0.021700  0.560000  1
  H  H521  1  0.270100  0.577100  0.733900  1.0
  H  H522  1  0.279500  0.516100  0.676300  1
  H  H523  1  0.381600  0.537800  0.995000  1
  H  H524  1  0.349900  0.619300  0.865500  1
  H  H525  1  0.367800  0.603200  0.969100  1
  H  H526  1  0.237500  0.608500  0.904700  1
  H  H527  1  0.338700  0.466800  0.778100  1
  H  H528  1  0.383100  0.478300  0.940000  1
  H  H529  1  0.770100  0.922900  0.233900  1.0
  H  H530  1  0.779500  0.983900  0.176300  1
  H  H531  1  0.881600  0.962200  0.495000  1
  H  H532  1  0.849900  0.880700  0.365500  1
  H  H533  1  0.867800  0.896800  0.469100  1
  H  H534  1  0.737500  0.891500  0.404700  1
  H  H535  1  0.838700  1.033200  0.278100  1
  H  H536  1  0.883100  1.021700  0.440000  1
  H  H537  1  0.729900  0.422900  0.266100  1.0
  H  H538  1  0.720500  0.483900  0.323700  1
  H  H539  1  0.618400  0.462200  0.005000  1
  H  H540  1  0.650100  0.380700  0.134500  1
  H  H541  1  0.632200  0.396800  0.030900  1
  H  H542  1  0.762500  0.391500  0.095300  1
  H  H543  1  0.661300  0.533200  0.221900  1
  H  H544  1  0.616900  0.521700  0.060000  1
  H  H545  1  0.736800  0.115000  0.208000  1.0
  H  H546  1  0.786000  0.177200  0.198500  1
  H  H547  1  0.395400  0.138500  0.090500  1
  H  H548  1  0.502500  0.069200  0.093900  1
  H  H549  1  0.469900  0.076900  0.191500  1
  H  H550  1  0.601900  0.065500  0.189000  1
  H  H551  1  0.639300  0.220600  0.134200  1
  H  H552  1  0.443700  0.200900  0.080000  1
  H  H553  1  0.763200  0.615000  0.292000  1.0
  H  H554  1  0.714000  0.677200  0.301500  1
  H  H555  1  1.104600  0.638500  0.409500  1
  H  H556  1  0.997500  0.569200  0.406100  1
  H  H557  1  1.030100  0.576900  0.308500  1
  H  H558  1  0.898100  0.565500  0.311000  1
  H  H559  1  0.860700  0.720600  0.365800  1
  H  H560  1  1.056300  0.700900  0.420000  1
  H  H561  1  0.263200  0.885000  0.792000  1.0
  H  H562  1  0.214000  0.822800  0.801500  1
  H  H563  1  0.604600  0.861500  0.909500  1
  H  H564  1  0.497500  0.930800  0.906100  1
  H  H565  1  0.530100  0.923100  0.808500  1
  H  H566  1  0.398100  0.934500  0.811000  1
  H  H567  1  0.360700  0.779400  0.865800  1
  H  H568  1  0.556300  0.799100  0.920000  1
  H  H569  1  0.236800  0.385000  0.708000  1.0
  H  H570  1  0.286000  0.322800  0.698500  1
  H  H571  1  -0.104600  0.361500  0.590500  1
  H  H572  1  0.002500  0.430800  0.593900  1
  H  H573  1  -0.030100  0.423100  0.691500  1
  H  H574  1  0.101900  0.434500  0.689000  1
  H  H575  1  0.139300  0.279400  0.634200  1
  H  H576  1  -0.056300  0.299100  0.580000  1
  N  N577  1  1.270700  0.281820  0.972300  1
  N  N578  1  -0.055600  0.271310  0.315600  1
  N  N579  1  0.229300  -0.218180  0.527700  1
  N  N580  1  1.555600  -0.228690  1.184400  1
  N  N581  1  -0.270700  -0.281820  0.027700  1
  N  N582  1  1.055600  -0.271310  0.684400  1
  N  N583  1  0.770700  0.218180  0.472300  1
  N  N584  1  -0.555600  0.228690  -0.184400  1
  O  O585  1  1.257600  0.219210  0.984000  1
  O  O586  1  -0.038800  0.208710  0.303700  1
  O  O587  1  0.242400  -0.280790  0.516000  1
  O  O588  1  1.538800  -0.291290  1.196300  1
  O  O589  1  -0.257600  -0.219210  0.016000  1
  O  O590  1  1.038800  -0.208710  0.696300  1
  O  O591  1  0.757600  0.280790  0.484000  1
  O  O592  1  -0.538800  0.291290  -0.196300  1
  S  S593  1  1.040490  0.201660  0.865090  1
  S  S594  1  0.182060  0.193230  0.427530  1
  S  S595  1  0.459510  -0.298340  0.634910  1
  S  S596  1  1.317940  -0.306770  1.072470  1
  S  S597  1  -0.040490  -0.201660  0.134910  1
  S  S598  1  0.817940  -0.193230  0.572470  1
  S  S599  1  0.540490  0.298340  0.365090  1
  S  S600  1  -0.317940  0.306770  -0.072470  1
  Si  Si601  1  0.565170  0.397510  0.615810  1.0
  Si  Si602  1  0.633990  0.069190  0.656440  1
  Si  Si603  1  0.934830  -0.102490  0.884190  1.0
  Si  Si604  1  0.866010  -0.430810  0.843560  1
  Si  Si605  1  0.434830  -0.397510  0.384190  1.0
  Si  Si606  1  0.366010  -0.069190  0.343560  1
  Si  Si607  1  0.065170  0.102490  0.115810  1.0
  Si  Si608  1  0.133990  0.430810  0.156440  1
