# generated using pymatgen
data_SiH27C19
_symmetry_space_group_name_H-M   'P 1'
_cell_length_a   8.62900000
_cell_length_b   10.44400000
_cell_length_c   10.76200000
_cell_angle_alpha   65.22300000
_cell_angle_beta   85.23700000
_cell_angle_gamma   82.88300000
_symmetry_Int_Tables_number   1
_chemical_formula_structural   SiH27C19
_chemical_formula_sum   'Si2 H54 C38'
_cell_volume   873.29716697
_cell_formula_units_Z   2
loop_
 _symmetry_equiv_pos_site_id
 _symmetry_equiv_pos_as_xyz
  1  'x, y, z'
loop_
 _atom_site_type_symbol
 _atom_site_label
 _atom_site_symmetry_multiplicity
 _atom_site_fract_x
 _atom_site_fract_y
 _atom_site_fract_z
 _atom_site_occupancy
  C  C1  1  0.045650  0.228590  0.217720  1
  C  C2  1  -0.099370  0.342990  0.418740  1
  C  C3  1  0.104500  0.521450  0.171740  1
  C  C4  1  0.255820  0.247600  0.416040  1
  C  C5  1  0.029560  0.158840  0.155060  1
  C  C6  1  -0.132500  0.194660  0.525580  1
  C  C7  1  -0.243480  0.417840  0.332600  1
  C  C8  1  0.100000  0.632630  0.231180  1
  C  C9  1  0.249960  0.527540  0.077800  1
  C  C10  1  0.388500  0.188200  0.345200  1
  C  C11  1  0.317510  0.339090  0.477420  1
  C  C12  1  0.014620  0.077950  0.078040  1
  C  C13  1  0.136220  0.070380  -0.016100  1
  C  C14  1  -0.121700  0.009060  0.094270  1
  C  C15  1  0.272700  0.142720  -0.037930  1
  C  C16  1  0.121700  -0.009060  -0.094270  1
  C  C17  1  -0.136220  -0.070380  0.016100  1
  C  C18  1  -0.247310  0.017950  0.185980  1
  C  C19  1  0.389780  0.135660  -0.128970  1
  C  C20  1  -0.014620  -0.077950  -0.078040  1
  C  C21  1  0.247310  -0.017950  -0.185980  1
  C  C22  1  -0.272700  -0.142720  0.037930  1
  C  C23  1  -0.376470  -0.051210  0.201780  1
  C  C24  1  0.376470  0.051210  -0.201780  1
  C  C25  1  0.530880  0.215840  -0.155480  1
  C  C26  1  -0.029560  -0.158840  -0.155060  1
  C  C27  1  -0.389780  -0.135660  0.128970  1
  C  C28  1  -0.045650  -0.228590  -0.217720  1
  C  C29  1  -0.530880  -0.215840  0.155480  1
  C  C30  1  0.099370  -0.342990  -0.418740  1
  C  C31  1  -0.104500  -0.521450  -0.171740  1
  C  C32  1  -0.255820  -0.247600  -0.416040  1
  C  C33  1  0.132500  -0.194660  -0.525580  1
  C  C34  1  0.243480  -0.417840  -0.332600  1
  C  C35  1  -0.100000  -0.632630  -0.231180  1
  C  C36  1  -0.249960  -0.527540  -0.077800  1
  C  C37  1  -0.388500  -0.188200  -0.345200  1
  C  C38  1  -0.317510  -0.339090  -0.477420  1
  H  H39  1  -0.079200  0.399800  0.469800  1
  H  H40  1  0.012300  0.549100  0.112200  1
  H  H41  1  0.218400  0.163700  0.495600  1
  H  H42  1  -0.225900  0.202600  0.581300  1
  H  H43  1  -0.043000  0.151700  0.584800  1
  H  H44  1  -0.149900  0.135100  0.478800  1
  H  H45  1  -0.267400  0.364100  0.281900  1
  H  H46  1  -0.222000  0.513600  0.267900  1
  H  H47  1  -0.332900  0.423600  0.393000  1
  H  H48  1  0.184700  0.606600  0.295200  1
  H  H49  1  -0.000700  0.636400  0.279500  1
  H  H50  1  0.113100  0.725800  0.156700  1
  H  H51  1  0.247600  0.621300  0.001200  1
  H  H52  1  0.251000  0.454900  0.042400  1
  H  H53  1  0.344100  0.510200  0.129900  1
  H  H54  1  0.432800  0.266500  0.268000  1
  H  H55  1  0.347500  0.125600  0.311600  1
  H  H56  1  0.470100  0.134500  0.410800  1
  H  H57  1  0.398400  0.282500  0.542600  1
  H  H58  1  0.231500  0.373000  0.524900  1
  H  H59  1  0.362100  0.420300  0.404000  1
  H  H60  1  0.282300  0.197300  0.012300  1
  H  H61  1  -0.240900  0.072700  0.236700  1
  H  H62  1  0.240900  -0.072700  -0.236700  1
  H  H63  1  -0.282300  -0.197300  -0.012300  1
  H  H64  1  -0.459300  -0.042900  0.262700  1
  H  H65  1  0.459300  0.042900  -0.262700  1
  H  H66  1  0.528600  0.291200  -0.248500  1
  H  H67  1  0.625900  0.150900  -0.146000  1
  H  H68  1  0.530200  0.257700  -0.089200  1
  H  H69  1  -0.528600  -0.291200  0.248500  1
  H  H70  1  -0.625900  -0.150900  0.146000  1
  H  H71  1  -0.530200  -0.257700  0.089200  1
  H  H72  1  0.079200  -0.399800  -0.469800  1
  H  H73  1  -0.012300  -0.549100  -0.112200  1
  H  H74  1  -0.218400  -0.163700  -0.495600  1
  H  H75  1  0.225900  -0.202600  -0.581300  1
  H  H76  1  0.043000  -0.151700  -0.584800  1
  H  H77  1  0.149900  -0.135100  -0.478800  1
  H  H78  1  0.267400  -0.364100  -0.281900  1
  H  H79  1  0.222000  -0.513600  -0.267900  1
  H  H80  1  0.332900  -0.423600  -0.393000  1
  H  H81  1  -0.184700  -0.606600  -0.295200  1
  H  H82  1  0.000700  -0.636400  -0.279500  1
  H  H83  1  -0.113100  -0.725800  -0.156700  1
  H  H84  1  -0.247600  -0.621300  -0.001200  1
  H  H85  1  -0.251000  -0.454900  -0.042400  1
  H  H86  1  -0.344100  -0.510200  -0.129900  1
  H  H87  1  -0.432800  -0.266500  -0.268000  1
  H  H88  1  -0.347500  -0.125600  -0.311600  1
  H  H89  1  -0.470100  -0.134500  -0.410800  1
  H  H90  1  -0.398400  -0.282500  -0.542600  1
  H  H91  1  -0.231500  -0.373000  -0.524900  1
  H  H92  1  -0.362100  -0.420300  -0.404000  1
  Si  Si93  1  0.079600  0.338120  0.307740  1.0
  Si  Si94  1  -0.079600  -0.338120  -0.307740  1
