# generated using pymatgen
data_Si2H84C69S2(NO)2
_symmetry_space_group_name_H-M   'P 1'
_cell_length_a   10.70050000
_cell_length_b   16.68550000
_cell_length_c   17.73870000
_cell_angle_alpha   97.47200000
_cell_angle_beta   104.92300000
_cell_angle_gamma   102.92500000
_symmetry_Int_Tables_number   1
_chemical_formula_structural   Si2H84C69S2(NO)2
_chemical_formula_sum   'Si4 H168 C138 S4 N4 O4'
_cell_volume   2922.96645364
_cell_formula_units_Z   2
loop_
 _symmetry_equiv_pos_site_id
 _symmetry_equiv_pos_as_xyz
  1  'x, y, z'
loop_
 _atom_site_type_symbol
 _atom_site_label
 _atom_site_symmetry_multiplicity
 _atom_site_fract_x
 _atom_site_fract_y
 _atom_site_fract_z
 _atom_site_occupancy
  C  C1  1  0.638780  0.209780  0.219010  1
  C  C2  1  0.451350  0.081060  0.081900  1
  C  C3  1  0.758700  0.150170  0.097780  1
  C  C4  1  0.570740  0.259770  0.054790  1
  C  C5  1  0.670600  0.222410  0.290910  1
  C  C6  1  0.322400  0.099780  0.092790  1
  C  C7  1  0.469290  0.011370  0.129860  1
  C  C8  1  0.801500  0.079360  0.137250  1
  C  C9  1  0.882100  0.228100  0.132270  1
  C  C10  1  0.518400  0.228260  -0.036420  1
  C  C11  1  0.469120  0.306860  0.070830  1
  C  C12  1  0.708230  0.237790  0.375910  1
  C  C13  1  0.233800  0.013500  0.091540  1
  C  C14  1  0.330600  -0.029870  0.137650  1
  C  C15  1  0.952800  0.101050  0.150390  1
  C  C16  1  0.996100  0.194600  0.178840  1
  C  C17  1  0.462400  0.296740  -0.069280  1
  C  C18  1  0.432200  0.347260  -0.001690  1
  C  C19  1  0.827930  0.299960  0.420010  1
  C  C20  1  0.626370  0.190430  0.414520  1
  C  C21  1  0.915030  0.343370  0.381670  1
  C  C22  1  0.862990  0.317700  0.505830  1
  C  C23  1  0.660940  0.208950  0.500270  1
  C  C24  1  0.510440  0.125150  0.370490  1
  C  C25  1  1.032170  0.400770  0.426620  1
  C  C26  1  0.983510  0.379010  0.549830  1
  C  C27  1  0.777870  0.273320  0.544280  1
  C  C28  1  0.576900  0.162810  0.538370  1
  C  C29  1  0.431560  0.082220  0.409710  1
  C  C30  1  1.067420  0.419590  0.511470  1
  C  C31  1  0.812000  0.293960  0.629270  1
  C  C32  1  0.463490  0.100970  0.494610  1
  C  C33  1  1.195780  0.481890  0.546400  1
  C  C34  1  1.253520  0.506460  0.490000  1
  C  C35  1  0.844530  0.314660  0.700820  1
  C  C36  1  0.364270  0.048250  0.522780  1
  C  C37  1  0.264940  -0.006940  0.460770  1
  C  C38  1  1.381780  0.566530  0.493250  1
  C  C39  1  0.141200  -0.073310  0.454420  1
  C  C40  1  0.917560  0.255640  0.856220  1
  C  C41  1  0.768080  0.391280  0.839720  1
  C  C42  1  1.065800  0.430420  0.836670  1
  C  C43  1  1.470900  0.594390  0.644400  1
  C  C44  1  1.592190  0.670470  0.564700  1
  C  C45  1  0.985000  0.195220  0.819860  1
  C  C46  1  0.998400  0.278010  0.945340  1
  C  C47  1  0.808700  0.435310  0.928310  1
  C  C48  1  0.714100  0.455120  0.793680  1
  C  C49  1  1.177200  0.401420  0.810780  1
  C  C50  1  1.062300  0.511280  0.802690  1
  C  C51  1  0.158610  -0.036410  0.600680  1
  C  C52  1  -0.027200  -0.147080  0.508420  1
  C  C53  1  1.614200  0.639750  0.695260  1
  C  C54  1  1.657640  0.709760  0.652850  1
  C  C55  1  1.057500  0.159210  0.886490  1
  C  C56  1  1.033500  0.197270  0.962020  1
  C  C57  1  0.726800  0.499980  0.930110  1
  C  C58  1  0.639600  0.488200  0.845000  1
  C  C59  1  1.279200  0.483580  0.815440  1
  C  C60  1  1.193000  0.537480  0.780320  1
  C  C61  1  0.048200  -0.060390  0.640090  1
  C  C62  1  -0.032100  -0.148060  0.593580  1
  C  C63  1  1.361220  0.790220  0.780990  1
  C  C64  1  1.548650  0.918940  0.918100  1
  C  C65  1  1.241300  0.849830  0.902220  1
  C  C66  1  1.429260  0.740230  0.945210  1
  C  C67  1  1.329400  0.777590  0.709090  1
  C  C68  1  1.677600  0.900220  0.907210  1
  C  C69  1  1.530710  0.988630  0.870140  1
  C  C70  1  1.198500  0.920640  0.862750  1
  C  C71  1  1.117900  0.771900  0.867730  1
  C  C72  1  1.481600  0.771740  1.036420  1
  C  C73  1  1.530880  0.693140  0.929170  1
  C  C74  1  1.291770  0.762210  0.624090  1
  C  C75  1  1.766200  0.986500  0.908460  1
  C  C76  1  1.669400  1.029870  0.862350  1
  C  C77  1  1.047200  0.898950  0.849610  1
  C  C78  1  1.003900  0.805400  0.821160  1
  C  C79  1  1.537600  0.703260  1.069280  1
  C  C80  1  1.567800  0.652740  1.001690  1
  C  C81  1  1.172070  0.700040  0.579990  1
  C  C82  1  1.373630  0.809570  0.585480  1
  C  C83  1  1.084970  0.656630  0.618330  1
  C  C84  1  1.137010  0.682300  0.494170  1
  C  C85  1  1.339060  0.791050  0.499730  1
  C  C86  1  1.489560  0.874850  0.629510  1
  C  C87  1  0.967830  0.599230  0.573380  1
  C  C88  1  1.016490  0.620990  0.450170  1
  C  C89  1  1.222130  0.726680  0.455720  1
  C  C90  1  1.423100  0.837190  0.461630  1
  C  C91  1  1.568440  0.917780  0.590290  1
  C  C92  1  0.932580  0.580410  0.488530  1
  C  C93  1  1.188000  0.706040  0.370730  1
  C  C94  1  1.536510  0.899030  0.505390  1
  C  C95  1  0.804220  0.518110  0.453600  1
  C  C96  1  0.746480  0.493540  0.510000  1
  C  C97  1  1.155470  0.685340  0.299180  1
  C  C98  1  1.635730  0.951750  0.477220  1
  C  C99  1  1.735060  1.006940  0.539230  1
  C  C100  1  0.618220  0.433470  0.506750  1
  C  C101  1  1.858800  1.073310  0.545580  1
  C  C102  1  1.082440  0.744360  0.143780  1
  C  C103  1  1.231920  0.608720  0.160280  1
  C  C104  1  0.934200  0.569580  0.163330  1
  C  C105  1  0.529100  0.405610  0.355600  1
  C  C106  1  0.407810  0.329530  0.435300  1
  C  C107  1  1.015000  0.804780  0.180140  1
  C  C108  1  1.001600  0.721990  0.054660  1
  C  C109  1  1.191300  0.564690  0.071690  1
  C  C110  1  1.285900  0.544880  0.206320  1
  C  C111  1  0.822800  0.598580  0.189220  1
  C  C112  1  0.937700  0.488720  0.197310  1
  C  C113  1  1.841390  1.036410  0.399320  1
  C  C114  1  2.027200  1.147080  0.491580  1
  C  C115  1  0.385800  0.360250  0.304740  1
  C  C116  1  0.342360  0.290240  0.347150  1
  C  C117  1  0.942500  0.840790  0.113510  1
  C  C118  1  0.966500  0.802730  0.037980  1
  C  C119  1  1.273200  0.500020  0.069890  1
  C  C120  1  1.360400  0.511800  0.155000  1
  C  C121  1  0.720800  0.516420  0.184560  1
  C  C122  1  0.807000  0.462520  0.219680  1
  C  C123  1  1.951800  1.060390  0.359910  1
  C  C124  1  2.032100  1.148060  0.406420  1
  C  C125  1  0.470080  0.243160  0.697650  1
  C  C126  1  0.346920  0.261210  0.677420  1
  C  C127  1  0.487400  0.178480  0.736310  1
  C  C128  1  0.240470  0.212100  0.696870  1
  C  C129  1  0.327500  0.331470  0.635010  1
  C  C130  1  0.381600  0.130050  0.755610  1
  C  C131  1  0.257500  0.147340  0.736140  1
  C  C132  1  0.529920  0.756840  0.302350  1
  C  C133  1  0.653080  0.738790  0.322580  1
  C  C134  1  0.512600  0.821520  0.263690  1
  C  C135  1  0.759530  0.787900  0.303130  1
  C  C136  1  0.672500  0.668530  0.364990  1
  C  C137  1  0.618400  0.869950  0.244390  1
  C  C138  1  0.742500  0.852660  0.263860  1
  H  H139  1  0.433200  0.056400  0.024400  1
  H  H140  1  0.745500  0.134200  0.039400  1
  H  H141  1  0.658900  0.302500  0.066800  1
  H  H142  1  0.341200  0.138500  0.144100  1
  H  H143  1  0.279300  0.124800  0.048900  1
  H  H144  1  0.502700  -0.030600  0.101800  1
  H  H145  1  0.534600  0.035600  0.183200  1
  H  H146  1  0.780500  0.079200  0.188400  1
  H  H147  1  0.756300  0.023800  0.101800  1
  H  H148  1  0.907200  0.253300  0.088900  1
  H  H149  1  0.862400  0.271000  0.168100  1
  H  H150  1  0.592300  0.219700  -0.057800  1
  H  H151  1  0.447400  0.174600  -0.050500  1
  H  H152  1  0.388700  0.267600  0.075900  1
  H  H153  1  0.509900  0.350200  0.120300  1
  H  H154  1  0.163900  0.019100  0.117700  1
  H  H155  1  0.189600  -0.018200  0.036200  1
  H  H156  1  0.303200  -0.090800  0.114900  1
  H  H157  1  0.332600  -0.022000  0.194300  1
  H  H158  1  0.996900  0.072600  0.191000  1
  H  H159  1  0.973800  0.085100  0.100300  1
  H  H160  1  1.081400  0.219200  0.168000  1
  H  H161  1  1.009500  0.209100  0.236800  1
  H  H162  1  0.379400  0.271800  -0.114200  1
  H  H163  1  0.528700  0.333333  -0.088600  1
  H  H164  1  0.335900  0.345800  -0.016300  1
  H  H165  1  0.486000  0.406400  0.010100  1
  H  H166  1  0.892300  0.332700  0.325200  1
  H  H167  1  0.487700  0.111300  0.314100  1
  H  H168  1  1.006600  0.392200  0.606300  1
  H  H169  1  0.599100  0.174700  0.594800  1
  H  H170  1  1.235000  0.503100  0.602000  1
  H  H171  1  0.367800  0.051600  0.577200  1
  H  H172  1  0.824900  0.222500  0.852000  1
  H  H173  1  0.689500  0.342000  0.831500  1
  H  H174  1  1.097800  0.447700  0.896000  1
  H  H175  1  1.450300  0.533700  0.645400  1
  H  H176  1  1.405100  0.618400  0.663200  1
  H  H177  1  1.570200  0.713200  0.533500  1
  H  H178  1  1.651700  0.642800  0.542800  1
  H  H179  1  0.916700  0.149700  0.778400  1
  H  H180  1  1.049300  0.225500  0.795100  1
  H  H181  1  1.080600  0.324300  0.955600  1
  H  H182  1  0.943700  0.294700  0.978700  1
  H  H183  1  0.786700  0.394200  0.961700  1
  H  H184  1  0.906100  0.463400  0.948100  1
  H  H185  1  0.788200  0.500200  0.789300  1
  H  H186  1  0.653800  0.427300  0.739700  1
  H  H187  1  1.217500  0.367600  0.847200  1
  H  H188  1  1.142500  0.367800  0.755900  1
  H  H189  1  0.983400  0.500200  0.755200  1
  H  H190  1  1.057000  0.556200  0.843100  1
  H  H191  1  0.183100  0.024700  0.602000  1
  H  H192  1  0.239800  -0.052500  0.627600  1
  H  H193  1  -0.026300  -0.202700  0.481600  1
  H  H194  1  -0.105000  -0.130800  0.476900  1
  H  H195  1  1.616500  0.662800  0.750100  1
  H  H196  1  1.673000  0.601400  0.697700  1
  H  H197  1  1.756600  0.727700  0.665500  1
  H  H198  1  1.625400  0.758900  0.668100  1
  H  H199  1  1.154800  0.173300  0.892100  1
  H  H200  1  1.022400  0.097400  0.875200  1
  H  H201  1  1.115100  0.209300  1.008000  1
  H  H202  1  0.958600  0.158900  0.973400  1
  H  H203  1  0.670600  0.489800  0.966200  1
  H  H204  1  0.787000  0.557600  0.948600  1
  H  H205  1  0.551400  0.447900  0.836200  1
  H  H206  1  0.624800  0.542300  0.833200  1
  H  H207  1  1.332600  0.509400  0.871300  1
  H  H208  1  1.340900  0.474500  0.784100  1
  H  H209  1  1.174300  0.527800  0.721800  1
  H  H210  1  1.238400  0.597600  0.802700  1
  H  H211  1  0.086800  -0.060900  0.697000  1
  H  H212  1  -0.008700  -0.020900  0.635600  1
  H  H213  1  -0.125800  -0.160000  0.595700  1
  H  H214  1  0.009000  -0.191000  0.615200  1
  H  H215  1  1.566800  0.943600  0.975600  1
  H  H216  1  1.254500  0.865800  0.960600  1
  H  H217  1  1.341100  0.697500  0.933200  1
  H  H218  1  1.658800  0.861500  0.855900  1
  H  H219  1  1.720700  0.875200  0.951100  1
  H  H220  1  1.497300  1.030600  0.898200  1
  H  H221  1  1.465400  0.964400  0.816800  1
  H  H222  1  1.219500  0.920800  0.811600  1
  H  H223  1  1.243700  0.976200  0.898200  1
  H  H224  1  1.092800  0.746700  0.911100  1
  H  H225  1  1.137600  0.729000  0.831900  1
  H  H226  1  1.407700  0.780300  1.057800  1
  H  H227  1  1.552600  0.825400  1.050500  1
  H  H228  1  1.611300  0.732400  0.924100  1
  H  H229  1  1.490100  0.649800  0.879700  1
  H  H230  1  1.836100  0.980900  0.882300  1
  H  H231  1  1.810400  1.018200  0.963800  1
  H  H232  1  1.696800  1.090800  0.885100  1
  H  H233  1  1.667400  1.022000  0.805700  1
  H  H234  1  1.003100  0.927400  0.809000  1
  H  H235  1  1.026200  0.914900  0.899700  1
  H  H236  1  0.918600  0.780800  0.832000  1
  H  H237  1  0.990500  0.790900  0.763200  1
  H  H238  1  1.620600  0.728200  1.114200  1
  H  H239  1  1.471300  0.666667  1.088600  1
  H  H240  1  1.664100  0.654200  1.016300  1
  H  H241  1  1.514000  0.593600  0.989900  1
  H  H242  1  1.107700  0.667300  0.674800  1
  H  H243  1  1.512300  0.888700  0.685900  1
  H  H244  1  0.993400  0.607800  0.393700  1
  H  H245  1  1.400900  0.825300  0.405200  1
  H  H246  1  0.765000  0.496900  0.398000  1
  H  H247  1  1.632200  0.948400  0.422800  1
  H  H248  1  1.175100  0.777500  0.148000  1
  H  H249  1  1.310500  0.658000  0.168500  1
  H  H250  1  0.902200  0.552300  0.104000  1
  H  H251  1  0.549700  0.466300  0.354600  1
  H  H252  1  0.594900  0.381600  0.336800  1
  H  H253  1  0.429800  0.286800  0.466500  1
  H  H254  1  0.348300  0.357200  0.457200  1
  H  H255  1  1.083300  0.850300  0.221600  1
  H  H256  1  0.950700  0.774500  0.204900  1
  H  H257  1  0.919400  0.675700  0.044400  1
  H  H258  1  1.056300  0.705300  0.021300  1
  H  H259  1  1.213300  0.605800  0.038300  1
  H  H260  1  1.093900  0.536600  0.051900  1
  H  H261  1  1.211800  0.499800  0.210700  1
  H  H262  1  1.346200  0.572700  0.260300  1
  H  H263  1  0.782500  0.632400  0.152800  1
  H  H264  1  0.857500  0.632200  0.244100  1
  H  H265  1  1.016600  0.499800  0.244800  1
  H  H266  1  0.943000  0.443800  0.156900  1
  H  H267  1  1.816900  0.975300  0.398000  1
  H  H268  1  1.760200  1.052500  0.372400  1
  H  H269  1  2.026300  1.202700  0.518400  1
  H  H270  1  2.105000  1.130800  0.523100  1
  H  H271  1  0.383500  0.337200  0.249900  1
  H  H272  1  0.327000  0.398600  0.302300  1
  H  H273  1  0.243400  0.272300  0.334500  1
  H  H274  1  0.374600  0.241100  0.331900  1
  H  H275  1  0.845200  0.826700  0.107900  1
  H  H276  1  0.977600  0.902600  0.124800  1
  H  H277  1  0.884900  0.790700  -0.008000  1
  H  H278  1  1.041400  0.841100  0.026600  1
  H  H279  1  1.329400  0.510200  0.033800  1
  H  H280  1  1.213000  0.442400  0.051400  1
  H  H281  1  1.448600  0.552100  0.163800  1
  H  H282  1  1.375200  0.457700  0.166800  1
  H  H283  1  0.667400  0.490600  0.128700  1
  H  H284  1  0.659100  0.525500  0.215900  1
  H  H285  1  0.825700  0.472200  0.278200  1
  H  H286  1  0.761600  0.402400  0.197300  1
  H  H287  1  1.913200  1.060900  0.303000  1
  H  H288  1  2.008700  1.020900  0.364400  1
  H  H289  1  2.125800  1.160000  0.404300  1
  H  H290  1  1.991000  1.191000  0.384800  1
  H  H291  1  0.543500  0.275900  0.684600  1.0
  H  H292  1  0.572500  0.166900  0.749900  1
  H  H293  1  0.155200  0.223400  0.682900  1
  H  H294  1  0.410100  0.356300  0.622600  1
  H  H295  1  0.306400  0.374400  0.669100  1
  H  H296  1  0.253500  0.309800  0.585500  1
  H  H297  1  0.393800  0.085200  0.782100  1
  H  H298  1  0.184700  0.114800  0.749800  1
  H  H299  1  0.456500  0.724100  0.315400  1.0
  H  H300  1  0.427500  0.833100  0.250100  1
  H  H301  1  0.844800  0.776600  0.317100  1
  H  H302  1  0.589900  0.643700  0.377400  1
  H  H303  1  0.693600  0.625600  0.330900  1
  H  H304  1  0.746500  0.690200  0.414500  1
  H  H305  1  0.606200  0.914800  0.217900  1
  H  H306  1  0.815300  0.885200  0.250200  1
  N  N307  1  1.469500  0.608650  0.564000  1
  N  N308  1  0.099170  -0.083810  0.518600  1
  N  N309  1  0.530500  0.391350  0.436000  1
  N  N310  1  1.900830  1.083810  0.481400  1
  O  O311  1  1.403330  0.577210  0.429830  1
  O  O312  1  0.077640  -0.116510  0.387920  1
  O  O313  1  0.596670  0.422790  0.570170  1
  O  O314  1  1.922360  1.116510  0.612080  1
  S  S315  1  1.155180  0.458930  0.391930  1
  S  S316  1  0.285970  0.000330  0.366710  1
  S  S317  1  0.844820  0.541070  0.608070  1
  S  S318  1  1.714030  0.999670  0.633290  1
  Si  Si319  1  0.601460  0.174780  0.110740  1.0
  Si  Si320  1  0.900170  0.348990  0.809830  1
  Si  Si321  1  1.398540  0.825220  0.889260  1.0
  Si  Si322  1  1.099830  0.651010  0.190170  1
