# generated using pymatgen
data_SiH23C22
_symmetry_space_group_name_H-M   'P 1'
_cell_length_a   7.47250000
_cell_length_b   7.69350000
_cell_length_c   16.28710000
_cell_angle_alpha   90.16300000
_cell_angle_beta   100.71700000
_cell_angle_gamma   95.79900000
_symmetry_Int_Tables_number   1
_chemical_formula_structural   SiH23C22
_chemical_formula_sum   'Si2 H46 C44'
_cell_volume   915.07584109
_cell_formula_units_Z   2
loop_
 _symmetry_equiv_pos_site_id
 _symmetry_equiv_pos_as_xyz
  1  'x, y, z'
loop_
 _atom_site_type_symbol
 _atom_site_label
 _atom_site_symmetry_multiplicity
 _atom_site_fract_x
 _atom_site_fract_y
 _atom_site_fract_z
 _atom_site_occupancy
  C  C1  1  0.162810  0.311030  0.729570  1
  C  C2  1  0.177100  -0.030450  0.818300  1
  C  C3  1  0.503000  0.256800  0.851100  1
  C  C4  1  0.190800  0.315000  0.915900  1
  C  C5  1  0.109560  0.372440  0.662750  1
  C  C6  1  0.258200  -0.120900  0.752050  1
  C  C7  1  -0.030800  -0.063400  0.800270  1
  C  C8  1  0.601000  0.157000  0.906500  1
  C  C9  1  0.596100  0.403500  0.809900  1
  C  C10  1  0.170000  0.227000  0.984800  1
  C  C11  1  0.161900  0.504000  0.910000  1
  C  C12  1  0.052760  0.439790  0.582040  1
  C  C13  1  -0.127130  0.393520  0.538280  1
  C  C14  1  0.179870  0.546590  0.545310  1
  C  C15  1  -0.257610  0.292300  0.574400  1
  C  C16  1  -0.179870  0.453410  0.454690  1
  C  C17  1  0.127130  0.606480  0.461720  1
  C  C18  1  0.358690  0.594360  0.588080  1
  C  C19  1  -0.433780  0.248290  0.531880  1
  C  C20  1  -0.052760  0.560210  0.417960  1
  C  C21  1  -0.358690  0.405640  0.411920  1
  C  C22  1  0.257610  0.707700  0.425600  1
  C  C23  1  0.485080  0.695120  0.551970  1
  C  C24  1  -0.567500  0.146420  0.568420  1
  C  C25  1  -0.485080  0.304880  0.448030  1
  C  C26  1  -0.109560  0.627560  0.337250  1
  C  C27  1  0.433780  0.751710  0.468120  1
  C  C28  1  0.666950  0.743210  0.595570  1
  C  C29  1  -0.738300  0.104310  0.524650  1
  C  C30  1  -0.666950  0.256790  0.404430  1
  C  C31  1  -0.162810  0.688970  0.270430  1
  C  C32  1  0.567500  0.853580  0.431580  1
  C  C33  1  0.788900  0.840260  0.558650  1
  C  C34  1  -0.788900  0.159740  0.441350  1
  C  C35  1  0.738300  0.895690  0.475350  1
  C  C36  1  -0.177100  1.030450  0.181700  1
  C  C37  1  -0.503000  0.743200  0.148900  1
  C  C38  1  -0.190800  0.685000  0.084100  1
  C  C39  1  -0.258200  1.120900  0.247950  1
  C  C40  1  0.030800  1.063400  0.199730  1
  C  C41  1  -0.601000  0.843000  0.093500  1
  C  C42  1  -0.596100  0.596500  0.190100  1
  C  C43  1  -0.170000  0.773000  0.015200  1
  C  C44  1  -0.161900  0.496000  0.090000  1
  H  H45  1  0.222300  -0.083200  0.873400  1
  H  H46  1  0.212400  -0.245200  0.748000  1
  H  H47  1  0.392000  -0.108700  0.767800  1
  H  H48  1  0.222100  -0.066900  0.697900  1
  H  H49  1  -0.079200  -0.010600  0.747100  1
  H  H50  1  -0.079700  -0.011300  0.845300  1
  H  H51  1  -0.067500  -0.189500  0.796700  1
  H  H52  1  0.730500  0.180300  0.919700  1
  H  H53  1  0.540700  0.064200  0.932500  1
  H  H54  1  0.727200  0.416700  0.833900  1
  H  H55  1  0.543600  0.512100  0.819000  1
  H  H56  1  0.578800  0.378100  0.749800  1
  H  H57  1  0.136100  0.284500  1.030400  1
  H  H58  1  0.188400  0.106400  0.988100  1
  H  H59  1  0.058300  0.519000  0.864900  1
  H  H60  1  0.272500  0.570600  0.898100  1
  H  H61  1  0.135900  0.545200  0.963000  1
  H  H62  1  -0.223500  0.252900  0.629800  1
  H  H63  1  0.394000  0.556200  0.643600  1
  H  H64  1  -0.394000  0.443800  0.356400  1
  H  H65  1  0.223500  0.747100  0.370200  1
  H  H66  1  -0.536000  0.107800  0.624100  1
  H  H67  1  0.702800  0.706500  0.651300  1
  H  H68  1  -0.825800  0.036600  0.550000  1
  H  H69  1  -0.702800  0.293500  0.348700  1
  H  H70  1  0.536000  0.892200  0.375900  1
  H  H71  1  0.909600  0.871700  0.588700  1
  H  H72  1  -0.909600  0.128300  0.411300  1
  H  H73  1  0.825800  0.963400  0.450000  1
  H  H74  1  -0.222300  1.083200  0.126600  1
  H  H75  1  -0.212400  1.245200  0.252000  1
  H  H76  1  -0.392000  1.108700  0.232200  1
  H  H77  1  -0.222100  1.066900  0.302100  1
  H  H78  1  0.079200  1.010600  0.252900  1
  H  H79  1  0.079700  1.011300  0.154700  1
  H  H80  1  0.067500  1.189500  0.203300  1
  H  H81  1  -0.730500  0.819700  0.080300  1
  H  H82  1  -0.540700  0.935800  0.067500  1
  H  H83  1  -0.727200  0.583300  0.166100  1
  H  H84  1  -0.543600  0.487900  0.181000  1
  H  H85  1  -0.578800  0.621900  0.250200  1
  H  H86  1  -0.136100  0.715500  -0.030400  1
  H  H87  1  -0.188400  0.893600  0.011900  1
  H  H88  1  -0.058300  0.481000  0.135100  1
  H  H89  1  -0.272500  0.429400  0.101900  1
  H  H90  1  -0.135900  0.454800  0.037000  1
  Si  Si91  1  0.254850  0.209240  0.827370  1.0
  Si  Si92  1  -0.254850  0.790760  0.172630  1
