# generated using pymatgen
data_SiH21C22
_symmetry_space_group_name_H-M   'P 1'
_cell_length_a   7.21990000
_cell_length_b   10.71060000
_cell_length_c   12.30620000
_cell_angle_alpha   65.20440000
_cell_angle_beta   86.46420000
_cell_angle_gamma   77.57780000
_symmetry_Int_Tables_number   1
_chemical_formula_structural   SiH21C22
_chemical_formula_sum   'Si2 H42 C44'
_cell_volume   843.23844774
_cell_formula_units_Z   2
loop_
 _symmetry_equiv_pos_site_id
 _symmetry_equiv_pos_as_xyz
  1  'x, y, z'
loop_
 _atom_site_type_symbol
 _atom_site_label
 _atom_site_symmetry_multiplicity
 _atom_site_fract_x
 _atom_site_fract_y
 _atom_site_fract_z
 _atom_site_occupancy
  C  C1  1  0.482400  0.415810  0.297730  1
  C  C2  1  0.714400  0.613950  0.288510  1
  C  C3  1  0.569400  0.627620  0.056910  1
  C  C4  1  0.296200  0.724200  0.215920  1
  C  C5  1  0.483700  0.292400  0.358930  1
  C  C6  1  0.752700  0.530900  0.423120  1
  C  C7  1  0.886500  0.494570  0.339120  1
  C  C8  1  0.771400  0.583590  0.023610  1
  C  C9  1  0.687700  0.736010  -0.014370  1
  C  C10  1  0.263900  0.875220  0.121300  1
  C  C11  1  0.139400  0.782200  0.120450  1
  C  C12  1  0.490000  0.146180  0.429970  1
  C  C13  1  0.639500  0.067180  0.517460  1
  C  C14  1  0.351000  0.081750  0.411280  1
  C  C15  1  0.780900  0.129010  0.535560  1
  C  C16  1  0.649000  -0.081750  0.588720  1
  C  C17  1  0.360500  -0.067180  0.482540  1
  C  C18  1  0.201500  0.157430  0.326140  1
  C  C19  1  0.928600  0.052330  0.619210  1
  C  C20  1  0.510000  -0.146180  0.570030  1
  C  C21  1  0.798500  -0.157430  0.673860  1
  C  C22  1  0.219100  -0.129010  0.464440  1
  C  C23  1  0.062600  0.095660  0.308890  1
  C  C24  1  1.075600  0.114270  0.635700  1
  C  C25  1  0.937400  -0.095660  0.691110  1
  C  C26  1  0.516300  -0.292400  0.641070  1
  C  C27  1  0.071400  -0.052330  0.380790  1
  C  C28  1  -0.090800  0.172290  0.222540  1
  C  C29  1  1.219700  0.036230  0.717900  1
  C  C30  1  1.090800  -0.172290  0.777460  1
  C  C31  1  0.517600  -0.415810  0.702270  1
  C  C32  1  -0.075600  -0.114270  0.364300  1
  C  C33  1  -0.225800  0.108900  0.210000  1
  C  C34  1  1.225800  -0.108900  0.790000  1
  C  C35  1  -0.219700  -0.036230  0.282100  1
  C  C36  1  0.285600  -0.613950  0.711490  1
  C  C37  1  0.430600  -0.627620  0.943090  1
  C  C38  1  0.703800  -0.724200  0.784080  1
  C  C39  1  0.247300  -0.530900  0.576880  1
  C  C40  1  0.113500  -0.494570  0.660880  1
  C  C41  1  0.228600  -0.583590  0.976390  1
  C  C42  1  0.312300  -0.736010  1.014370  1
  C  C43  1  0.736100  -0.875220  0.878700  1
  C  C44  1  0.860600  -0.782200  0.879550  1
  H  H45  1  0.742700  0.710300  0.255000  1
  H  H46  1  0.467600  0.620100  0.009800  1
  H  H47  1  0.252900  0.713200  0.297600  1
  H  H48  1  0.795700  0.578500  0.467700  1
  H  H49  1  0.669700  0.464800  0.468000  1
  H  H50  1  0.886500  0.405800  0.332100  1
  H  H51  1  1.012400  0.519600  0.331700  1
  H  H52  1  0.870600  0.538800  0.088400  1
  H  H53  1  0.789200  0.547100  -0.038900  1
  H  H54  1  0.653600  0.793700  -0.100300  1
  H  H55  1  0.734900  0.785400  0.027000  1
  H  H56  1  0.209100  0.951100  0.147100  1
  H  H57  1  0.357600  0.899300  0.057500  1
  H  H58  1  0.155600  0.748800  0.056000  1
  H  H59  1  0.007100  0.800500  0.145500  1
  H  H60  1  0.775100  0.226500  0.489000  1
  H  H61  1  0.195300  0.254700  0.278600  1
  H  H62  1  0.804700  -0.254700  0.721400  1
  H  H63  1  0.224900  -0.226500  0.511000  1
  H  H64  1  1.072400  0.211300  0.588600  1
  H  H65  1  -0.097700  0.269300  0.173300  1
  H  H66  1  1.316600  0.078800  0.727200  1
  H  H67  1  1.097700  -0.269300  0.826700  1
  H  H68  1  -0.072400  -0.211300  0.411400  1
  H  H69  1  -0.326300  0.162000  0.152200  1
  H  H70  1  1.326300  -0.162000  0.847800  1
  H  H71  1  -0.316600  -0.078800  0.272800  1
  H  H72  1  0.257300  -0.710300  0.745000  1
  H  H73  1  0.532400  -0.620100  0.990200  1
  H  H74  1  0.747100  -0.713200  0.702400  1
  H  H75  1  0.204300  -0.578500  0.532300  1
  H  H76  1  0.330300  -0.464800  0.532000  1
  H  H77  1  0.113500  -0.405800  0.667900  1
  H  H78  1  -0.012400  -0.519600  0.668300  1
  H  H79  1  0.129400  -0.538800  0.911600  1
  H  H80  1  0.210800  -0.547100  1.038900  1
  H  H81  1  0.346400  -0.793700  1.100300  1
  H  H82  1  0.265100  -0.785400  0.973000  1
  H  H83  1  0.790900  -0.951100  0.852900  1
  H  H84  1  0.642400  -0.899300  0.942500  1
  H  H85  1  0.844400  -0.748800  0.944000  1
  H  H86  1  0.992900  -0.800500  0.854500  1
  Si  Si87  1  0.513120  0.597820  0.213490  1.0
  Si  Si88  1  0.486880  -0.597820  0.786510  1
