# generated using pymatgen
data_SiH18C18SF
_symmetry_space_group_name_H-M   'P 1'
_cell_length_a   6.83720000
_cell_length_b   7.45960000
_cell_length_c   16.78330000
_cell_angle_alpha   99.29400000
_cell_angle_beta   93.84600000
_cell_angle_gamma   102.78600000
_symmetry_Int_Tables_number   1
_chemical_formula_structural   SiH18C18SF
_chemical_formula_sum   'Si2 H36 C36 S2 F2'
_cell_volume   819.09615036
_cell_formula_units_Z   2
loop_
 _symmetry_equiv_pos_site_id
 _symmetry_equiv_pos_as_xyz
  1  'x, y, z'
loop_
 _atom_site_type_symbol
 _atom_site_label
 _atom_site_symmetry_multiplicity
 _atom_site_fract_x
 _atom_site_fract_y
 _atom_site_fract_z
 _atom_site_occupancy
  C  C1  1  0.302500  0.618000  0.719960  1
  C  C2  1  -0.061300  0.599500  0.813220  1
  C  C3  1  0.305300  0.450800  0.868730  1
  C  C4  1  0.339000  0.875500  0.882600  1
  C  C5  1  0.358200  0.587100  0.653680  1
  C  C6  1  -0.174800  0.434000  0.749940  1
  C  C7  1  0.235700  0.429400  0.951920  1
  C  C8  1  0.559900  0.917500  0.891570  1
  C  C9  1  0.428000  0.545100  0.575970  1
  C  C10  1  0.672900  1.041500  0.858000  1
  C  C11  1  0.626000  0.635200  0.563500  1
  C  C12  1  0.299700  0.413400  0.513450  1
  C  C13  1  0.752300  0.772300  0.625130  1
  C  C14  1  0.700300  0.586600  0.486550  1
  C  C15  1  0.374000  0.364800  0.436500  1
  C  C16  1  0.098100  0.328700  0.524580  1
  C  C17  1  0.944300  0.852500  0.611480  1
  C  C18  1  0.572000  0.454900  0.424030  1
  C  C19  1  0.901900  0.671300  0.475420  1
  C  C20  1  0.247700  0.227700  0.374870  1
  C  C21  1  -0.022600  0.200600  0.463560  1
  C  C22  1  1.022600  0.799400  0.536440  1
  C  C23  1  0.641800  0.412900  0.346320  1
  C  C24  1  0.055700  0.147500  0.388520  1
  C  C25  1  -0.229500  0.102500  0.461500  1
  C  C26  1  1.229500  0.897500  0.538500  1
  C  C27  1  1.298000  1.014100  0.607910  1
  C  C28  1  0.697500  0.382000  0.280040  1
  C  C29  1  -0.298000  -0.014100  0.392090  1
  C  C30  1  1.061300  0.400500  0.186780  1
  C  C31  1  0.694700  0.549200  0.131270  1
  C  C32  1  0.661000  0.124500  0.117400  1
  C  C33  1  1.174800  0.566000  0.250060  1
  C  C34  1  0.764300  0.570600  0.048080  1
  C  C35  1  0.440100  0.082500  0.108430  1
  C  C36  1  0.327100  -0.041500  0.142000  1
  F  F37  1  1.482400  1.125700  0.629680  1
  F  F38  1  -0.482400  -0.125700  0.370320  1
  H  H39  1  -0.108000  0.582400  0.866700  1
  H  H40  1  -0.096700  0.713800  0.800000  1
  H  H41  1  0.255600  0.329700  0.831200  1
  H  H42  1  0.454600  0.479500  0.873900  1
  H  H43  1  0.294100  0.970300  0.855600  1
  H  H44  1  0.291400  0.885100  0.937200  1
  H  H45  1  -0.133900  0.451200  0.696300  1
  H  H46  1  -0.320100  0.424600  0.749700  1
  H  H47  1  -0.143800  0.319200  0.762900  1
  H  H48  1  0.280900  0.549200  0.989400  1
  H  H49  1  0.293300  0.334900  0.972900  1
  H  H50  1  0.088100  0.390300  0.946900  1
  H  H51  1  0.624300  0.849700  0.924000  1
  H  H52  1  0.613100  1.111700  0.825200  1
  H  H53  1  0.815500  1.062100  0.866200  1
  H  H54  1  0.703900  0.808300  0.675600  1
  H  H55  1  0.047000  0.361400  0.574800  1
  H  H56  1  0.953000  0.638600  0.425200  1
  H  H57  1  0.296100  0.191700  0.324400  1
  H  H58  1  -0.308700  0.119600  0.505200  1
  H  H59  1  1.308700  0.880400  0.494800  1
  H  H60  1  1.108000  0.417600  0.133300  1
  H  H61  1  1.096700  0.286200  0.200000  1
  H  H62  1  0.744400  0.670300  0.168800  1
  H  H63  1  0.545400  0.520500  0.126100  1
  H  H64  1  0.705900  0.029700  0.144400  1
  H  H65  1  0.708600  0.114900  0.062800  1
  H  H66  1  1.133900  0.548800  0.303700  1
  H  H67  1  1.320100  0.575400  0.250300  1
  H  H68  1  1.143800  0.680800  0.237100  1
  H  H69  1  0.719100  0.450800  0.010600  1
  H  H70  1  0.706700  0.665100  0.027100  1
  H  H71  1  0.911900  0.609700  0.053100  1
  H  H72  1  0.375700  0.150300  0.076000  1
  H  H73  1  0.386900  -0.111700  0.174800  1
  H  H74  1  0.184500  -0.062100  0.133800  1
  S  S75  1  1.123320  1.024200  0.679320  1
  S  S76  1  -0.123320  -0.024200  0.320680  1
  Si  Si77  1  0.219520  0.636610  0.822160  1.0
  Si  Si78  1  0.780480  0.363390  0.177840  1
