# generated using pymatgen
data_SiH29C25F4
_symmetry_space_group_name_H-M   'P 1'
_cell_length_a   8.22690000
_cell_length_b   15.44540000
_cell_length_c   18.74150000
_cell_angle_alpha   107.12300000
_cell_angle_beta   97.00100000
_cell_angle_gamma   90.79000000
_symmetry_Int_Tables_number   1
_chemical_formula_structural   SiH29C25F4
_chemical_formula_sum   'Si4 H116 C100 F16'
_cell_volume   2255.81433458
_cell_formula_units_Z   4
loop_
 _symmetry_equiv_pos_site_id
 _symmetry_equiv_pos_as_xyz
  1  'x, y, z'
loop_
 _atom_site_type_symbol
 _atom_site_label
 _atom_site_symmetry_multiplicity
 _atom_site_fract_x
 _atom_site_fract_y
 _atom_site_fract_z
 _atom_site_occupancy
  C  C1  1  0.793300  0.336900  0.711100  1
  C  C2  1  1.019000  0.310000  0.839800  1
  C  C3  1  0.758600  0.453700  0.868600  1
  C  C4  1  1.037800  0.490300  0.782400  1
  C  C5  1  0.715700  0.301400  0.651090  1
  C  C6  1  1.096000  0.363000  0.922700  1
  C  C7  1  1.128000  0.260000  0.787800  1
  C  C8  1  0.639200  0.512000  0.831800  1
  C  C9  1  0.665000  0.381600  0.887100  1
  C  C10  1  1.158300  0.448900  0.722800  1
  C  C11  1  1.118000  0.562100  0.851200  1
  C  C12  1  0.626400  0.260300  0.578320  1
  C  C13  1  1.221700  0.188500  0.814500  1
  C  C14  1  0.569800  0.404200  0.950700  1
  C  C15  1  1.196000  0.642200  0.831200  1
  C  C16  1  0.516000  0.312300  0.545960  1
  C  C17  1  0.650300  0.169000  0.538840  1
  C  C18  1  0.489300  0.402400  0.584000  1
  C  C19  1  0.429200  0.271820  0.471410  1
  C  C20  1  0.565500  0.129140  0.464160  1
  C  C21  1  0.755100  0.115700  0.571320  1
  C  C22  1  0.383000  0.453700  0.552560  1
  C  C23  1  0.318800  0.324000  0.439870  1
  C  C24  1  0.457700  0.181300  0.430930  1
  C  C25  1  0.591600  0.038400  0.425230  1
  C  C26  1  0.778300  0.026600  0.533130  1
  C  C27  1  0.356800  0.545700  0.590000  1
  C  C28  1  0.294800  0.412600  0.478390  1
  C  C29  1  0.376300  0.143400  0.355880  1
  C  C30  1  0.695300  -0.013300  0.457710  1
  C  C31  1  0.884200  -0.028700  0.564690  1
  C  C32  1  0.251500  0.594100  0.558000  1
  C  C33  1  0.184500  0.466800  0.447500  1
  C  C34  1  0.310300  0.113800  0.292400  1
  C  C35  1  0.723200  -0.104900  0.419540  1
  C  C36  1  0.906700  -0.115300  0.526000  1
  C  C37  1  0.164300  0.553400  0.485400  1
  C  C38  1  0.824800  -0.154400  0.452400  1
  C  C39  1  -0.011900  0.049900  0.199400  1
  C  C40  1  0.319000  -0.026900  0.145000  1
  C  C41  1  0.239000  0.171300  0.153300  1
  C  C42  1  -0.115000  0.015200  0.121400  1
  C  C43  1  -0.086100  0.129200  0.251800  1
  C  C44  1  0.327000  -0.096700  0.192200  1
  C  C45  1  0.283000  -0.066700  0.063600  1
  C  C46  1  0.419900  0.215400  0.176500  1
  C  C47  1  0.168000  0.153400  0.076000  1
  C  C48  1  -0.243300  0.103900  0.275700  1
  C  C49  1  0.408000  -0.132600  0.028600  1
  C  C50  1  0.174000  0.227200  0.039300  1
  C  C51  1  0.206700  -0.336900  0.288900  1
  C  C52  1  -0.019000  -0.310000  0.160200  1
  C  C53  1  0.241400  -0.453700  0.131400  1
  C  C54  1  -0.037800  -0.490300  0.217600  1
  C  C55  1  0.284300  -0.301400  0.348910  1
  C  C56  1  -0.096000  -0.363000  0.077300  1
  C  C57  1  -0.128000  -0.260000  0.212200  1
  C  C58  1  0.360800  -0.512000  0.168200  1
  C  C59  1  0.335000  -0.381600  0.112900  1
  C  C60  1  -0.158300  -0.448900  0.277200  1
  C  C61  1  -0.118000  -0.562100  0.148800  1
  C  C62  1  0.373600  -0.260300  0.421680  1
  C  C63  1  -0.221700  -0.188500  0.185500  1
  C  C64  1  0.430200  -0.404200  0.049300  1
  C  C65  1  -0.196000  -0.642200  0.168800  1
  C  C66  1  0.484000  -0.312300  0.454040  1
  C  C67  1  0.349700  -0.169000  0.461160  1
  C  C68  1  0.510700  -0.402400  0.416000  1
  C  C69  1  0.570800  -0.271820  0.528590  1
  C  C70  1  0.434500  -0.129140  0.535840  1
  C  C71  1  0.244900  -0.115700  0.428680  1
  C  C72  1  0.617000  -0.453700  0.447440  1
  C  C73  1  0.681200  -0.324000  0.560130  1
  C  C74  1  0.542300  -0.181300  0.569070  1
  C  C75  1  0.408400  -0.038400  0.574770  1
  C  C76  1  0.221700  -0.026600  0.466870  1
  C  C77  1  0.643200  -0.545700  0.410000  1
  C  C78  1  0.705200  -0.412600  0.521610  1
  C  C79  1  0.623700  -0.143400  0.644120  1
  C  C80  1  0.304700  0.013300  0.542290  1
  C  C81  1  0.115800  0.028700  0.435310  1
  C  C82  1  0.748500  -0.594100  0.442000  1
  C  C83  1  0.815500  -0.466800  0.552500  1
  C  C84  1  0.689700  -0.113800  0.707600  1
  C  C85  1  0.276800  0.104900  0.580460  1
  C  C86  1  0.093300  0.115300  0.474000  1
  C  C87  1  0.835700  -0.553400  0.514600  1
  C  C88  1  0.175200  0.154400  0.547600  1
  C  C89  1  1.011900  -0.049900  0.800600  1
  C  C90  1  0.681000  0.026900  0.855000  1
  C  C91  1  0.761000  -0.171300  0.846700  1
  C  C92  1  1.115000  -0.015200  0.878600  1
  C  C93  1  1.086100  -0.129200  0.748200  1
  C  C94  1  0.673000  0.096700  0.807800  1
  C  C95  1  0.717000  0.066700  0.936400  1
  C  C96  1  0.580100  -0.215400  0.823500  1
  C  C97  1  0.832000  -0.153400  0.924000  1
  C  C98  1  1.243300  -0.103900  0.724300  1
  C  C99  1  0.592000  0.132600  0.971400  1
  C  C100  1  0.826000  -0.227200  0.960700  1
  F  F101  1  0.440300  0.584720  0.658200  1
  F  F102  1  0.964200  0.008170  0.634530  1
  F  F103  1  0.226900  0.681070  0.593260  1
  F  F104  1  0.100900  0.429190  0.378430  1
  F  F105  1  0.645000  -0.142830  0.350210  1
  F  F106  1  1.008100  -0.167320  0.555420  1
  F  F107  1  0.061400  0.605220  0.456370  1
  F  F108  1  0.851800  -0.240680  0.416410  1
  F  F109  1  0.559700  -0.584720  0.341800  1
  F  F110  1  0.035800  -0.008170  0.365470  1
  F  F111  1  0.773100  -0.681070  0.406740  1
  F  F112  1  0.899100  -0.429190  0.621570  1
  F  F113  1  0.355000  0.142830  0.649790  1
  F  F114  1  -0.008100  0.167320  0.444580  1
  F  F115  1  0.938600  -0.605220  0.543630  1
  F  F116  1  0.148200  0.240680  0.583590  1
  H  H117  1  0.931800  0.266200  0.843000  1
  H  H118  1  0.820000  0.494500  0.916200  1
  H  H119  1  0.957200  0.522800  0.756600  1
  H  H120  1  1.153400  0.320600  0.945800  1
  H  H121  1  1.009000  0.389800  0.952100  1
  H  H122  1  1.174000  0.411000  0.921700  1
  H  H123  1  1.207800  0.303100  0.779600  1
  H  H124  1  1.061900  0.229300  0.738600  1
  H  H125  1  0.569100  0.471800  0.788200  1
  H  H126  1  0.703400  0.554700  0.815300  1
  H  H127  1  0.570700  0.545600  0.868800  1
  H  H128  1  0.588300  0.350000  0.841500  1
  H  H129  1  0.744300  0.336900  0.895600  1
  H  H130  1  1.212900  0.498000  0.710000  1
  H  H131  1  1.095800  0.407800  0.677300  1
  H  H132  1  1.240700  0.415200  0.744300  1
  H  H133  1  1.203900  0.534900  0.878300  1
  H  H134  1  1.035100  0.585100  0.885400  1
  H  H135  1  1.159100  0.130000  0.795100  1
  H  H136  1  1.237900  0.206800  0.869700  1
  H  H137  1  1.328500  0.182600  0.795900  1
  H  H138  1  0.644600  0.423800  0.998000  1
  H  H139  1  0.503000  0.350700  0.949500  1
  H  H140  1  0.498100  0.453400  0.947200  1
  H  H141  1  1.295500  0.623000  0.808200  1
  H  H142  1  1.224200  0.693100  0.877000  1
  H  H143  1  1.117700  0.661100  0.795600  1
  H  H144  1  0.546200  0.429200  0.633100  1
  H  H145  1  0.811300  0.141600  0.620700  1
  H  H146  1  0.260000  0.297500  0.391100  1
  H  H147  1  0.536700  0.012100  0.375700  1
  H  H148  1  -0.015900  -0.000800  0.222400  1
  H  H149  1  0.435500  -0.002800  0.152300  1
  H  H150  1  0.170700  0.219000  0.181800  1
  H  H151  1  -0.223900  -0.006500  0.126800  1
  H  H152  1  -0.060600  -0.034600  0.089100  1
  H  H153  1  -0.126100  0.064700  0.098600  1
  H  H154  1  -0.005700  0.155700  0.297300  1
  H  H155  1  -0.107200  0.176400  0.226300  1
  H  H156  1  0.243000  -0.146000  0.168700  1
  H  H157  1  0.306200  -0.065700  0.243700  1
  H  H158  1  0.435400  -0.121800  0.193300  1
  H  H159  1  0.277000  -0.017200  0.039900  1
  H  H160  1  0.173900  -0.099100  0.051800  1
  H  H161  1  0.498300  0.168100  0.162500  1
  H  H162  1  0.438800  0.244500  0.231100  1
  H  H163  1  0.434300  0.260800  0.150400  1
  H  H164  1  0.051100  0.134000  0.072500  1
  H  H165  1  0.222000  0.101000  0.045600  1
  H  H166  1  -0.322300  0.075400  0.231000  1
  H  H167  1  -0.288500  0.158500  0.306700  1
  H  H168  1  -0.221700  0.061200  0.305000  1
  H  H169  1  0.502700  -0.098400  0.021200  1
  H  H170  1  0.357800  -0.173000  -0.020100  1
  H  H171  1  0.444500  -0.168600  0.062200  1
  H  H172  1  0.114900  0.278800  0.066400  1
  H  H173  1  0.122200  0.204500  -0.013100  1
  H  H174  1  0.288300  0.246700  0.040600  1
  H  H175  1  0.068200  -0.266200  0.157000  1
  H  H176  1  0.180000  -0.494500  0.083800  1
  H  H177  1  0.042800  -0.522800  0.243400  1
  H  H178  1  -0.153400  -0.320600  0.054200  1
  H  H179  1  -0.009000  -0.389800  0.047900  1
  H  H180  1  -0.174000  -0.411000  0.078300  1
  H  H181  1  -0.207800  -0.303100  0.220400  1
  H  H182  1  -0.061900  -0.229300  0.261400  1
  H  H183  1  0.430900  -0.471800  0.211800  1
  H  H184  1  0.296600  -0.554700  0.184700  1
  H  H185  1  0.429300  -0.545600  0.131200  1
  H  H186  1  0.411700  -0.350000  0.158500  1
  H  H187  1  0.255700  -0.336900  0.104400  1
  H  H188  1  -0.212900  -0.498000  0.290000  1
  H  H189  1  -0.095800  -0.407800  0.322700  1
  H  H190  1  -0.240700  -0.415200  0.255700  1
  H  H191  1  -0.203900  -0.534900  0.121700  1
  H  H192  1  -0.035100  -0.585100  0.114600  1
  H  H193  1  -0.159100  -0.130000  0.204900  1
  H  H194  1  -0.237900  -0.206800  0.130300  1
  H  H195  1  -0.328500  -0.182600  0.204100  1
  H  H196  1  0.355400  -0.423800  0.002000  1
  H  H197  1  0.497000  -0.350700  0.050500  1
  H  H198  1  0.501900  -0.453400  0.052800  1
  H  H199  1  -0.295500  -0.623000  0.191800  1
  H  H200  1  -0.224200  -0.693100  0.123000  1
  H  H201  1  -0.117700  -0.661100  0.204400  1
  H  H202  1  0.453800  -0.429200  0.366900  1
  H  H203  1  0.188700  -0.141600  0.379300  1
  H  H204  1  0.740000  -0.297500  0.608900  1
  H  H205  1  0.463300  -0.012100  0.624300  1
  H  H206  1  1.015900  0.000800  0.777600  1
  H  H207  1  0.564500  0.002800  0.847700  1
  H  H208  1  0.829300  -0.219000  0.818200  1
  H  H209  1  1.223900  0.006500  0.873200  1
  H  H210  1  1.060600  0.034600  0.910900  1
  H  H211  1  1.126100  -0.064700  0.901400  1
  H  H212  1  1.005700  -0.155700  0.702700  1
  H  H213  1  1.107200  -0.176400  0.773700  1
  H  H214  1  0.757000  0.146000  0.831300  1
  H  H215  1  0.693800  0.065700  0.756300  1
  H  H216  1  0.564600  0.121800  0.806700  1
  H  H217  1  0.723000  0.017200  0.960100  1
  H  H218  1  0.826100  0.099100  0.948200  1
  H  H219  1  0.501700  -0.168100  0.837500  1
  H  H220  1  0.561200  -0.244500  0.768900  1
  H  H221  1  0.565700  -0.260800  0.849600  1
  H  H222  1  0.948900  -0.134000  0.927500  1
  H  H223  1  0.778000  -0.101000  0.954400  1
  H  H224  1  1.322300  -0.075400  0.769000  1
  H  H225  1  1.288500  -0.158500  0.693300  1
  H  H226  1  1.221700  -0.061200  0.695000  1
  H  H227  1  0.497300  0.098400  0.978800  1
  H  H228  1  0.642200  0.173000  1.020100  1
  H  H229  1  0.555500  0.168600  0.937800  1
  H  H230  1  0.885100  -0.278800  0.933600  1
  H  H231  1  0.877800  -0.204500  1.013100  1
  H  H232  1  0.711700  -0.246700  0.959400  1
  Si  Si233  1  0.912070  0.400130  0.802680  1.0
  Si  Si234  1  0.211460  0.071920  0.193660  1
  Si  Si235  1  0.087930  -0.400130  0.197320  1.0
  Si  Si236  1  0.788540  -0.071920  0.806340  1
