# generated using pymatgen
data_SiH18C17SF
_symmetry_space_group_name_H-M   'P 1'
_cell_length_a   7.07100000
_cell_length_b   7.18140000
_cell_length_c   16.72660000
_cell_angle_alpha   97.89300000
_cell_angle_beta   93.70400000
_cell_angle_gamma   106.38700000
_symmetry_Int_Tables_number   1
_chemical_formula_structural   SiH18C17SF
_chemical_formula_sum   'Si2 H36 C34 S2 F2'
_cell_volume   802.36125452
_cell_formula_units_Z   2
loop_
 _symmetry_equiv_pos_site_id
 _symmetry_equiv_pos_as_xyz
  1  'x, y, z'
loop_
 _atom_site_type_symbol
 _atom_site_label
 _atom_site_symmetry_multiplicity
 _atom_site_fract_x
 _atom_site_fract_y
 _atom_site_fract_z
 _atom_site_occupancy
  C  C1  1  0.682500  0.382600  0.279270  1
  C  C2  1  1.027900  0.383300  0.181660  1
  C  C3  1  0.693500  0.552100  0.127340  1
  C  C4  1  0.614600  0.103700  0.120020  1
  C  C5  1  0.630700  0.413200  0.345500  1
  C  C6  1  1.158500  0.572100  0.233500  1
  C  C7  1  0.765800  0.575000  0.043920  1
  C  C8  1  0.392400  0.045500  0.125100  1
  C  C9  1  0.566200  0.454600  0.423770  1
  C  C10  1  0.367300  0.364700  0.436240  1
  C  C11  1  0.700900  0.586800  0.486550  1
  C  C12  1  0.234200  0.226300  0.374620  1
  C  C13  1  0.299100  0.413200  0.513450  1
  C  C14  1  0.632700  0.635300  0.563760  1
  C  C15  1  0.902900  0.672500  0.475150  1
  C  C16  1  0.041900  0.144900  0.388440  1
  C  C17  1  0.433800  0.545400  0.576230  1
  C  C18  1  0.097100  0.327500  0.524850  1
  C  C19  1  0.765800  0.773700  0.625380  1
  C  C20  1  1.030100  0.802400  0.536420  1
  C  C21  1  -0.030100  0.197600  0.463580  1
  C  C22  1  0.369300  0.586800  0.654500  1
  C  C23  1  0.958100  0.855100  0.611560  1
  C  C24  1  1.237600  0.901100  0.538900  1
  C  C25  1  -0.237600  0.098900  0.461100  1
  C  C26  1  -0.311300  -0.019100  0.392390  1
  C  C27  1  0.317500  0.617400  0.720730  1
  C  C28  1  1.311300  1.019100  0.607610  1
  C  C29  1  -0.027900  0.616700  0.818340  1
  C  C30  1  0.306500  0.447900  0.872660  1
  C  C31  1  0.385400  0.896300  0.879980  1
  C  C32  1  -0.158500  0.427900  0.766500  1
  C  C33  1  0.234200  0.425000  0.956080  1
  C  C34  1  0.607600  0.954500  0.874900  1
  F  F35  1  -0.498700  -0.131500  0.370870  1
  F  F36  1  1.498700  1.131500  0.629130  1
  H  H37  1  1.052700  0.270300  0.203700  1
  H  H38  1  1.068000  0.378100  0.126000  1
  H  H39  1  0.547600  0.524900  0.121800  1
  H  H40  1  0.750800  0.678900  0.164300  1
  H  H41  1  0.637900  0.097700  0.062100  1
  H  H42  1  0.668500  0.005500  0.141800  1
  H  H43  1  1.123800  0.577100  0.289400  1
  H  H44  1  1.137900  0.685500  0.211600  1
  H  H45  1  1.298000  0.575600  0.233000  1
  H  H46  1  0.718100  0.675000  0.021900  1
  H  H47  1  0.714600  0.449100  0.007100  1
  H  H48  1  0.911100  0.615500  0.049400  1
  H  H49  1  0.366900  0.046000  0.182000  1
  H  H50  1  0.330800  -0.086500  0.094100  1
  H  H51  1  0.336300  0.139600  0.102400  1
  H  H52  1  0.278000  0.190100  0.323900  1
  H  H53  1  0.949600  0.639300  0.424700  1
  H  H54  1  0.050400  0.360700  0.575300  1
  H  H55  1  0.722000  0.809900  0.676100  1
  H  H56  1  1.313800  0.882900  0.495400  1
  H  H57  1  -0.313800  0.117100  0.504600  1
  H  H58  1  -0.052700  0.729700  0.796300  1
  H  H59  1  -0.068000  0.621900  0.874000  1
  H  H60  1  0.452400  0.475100  0.878200  1
  H  H61  1  0.249200  0.321100  0.835700  1
  H  H62  1  0.362100  0.902300  0.937900  1
  H  H63  1  0.331500  0.994500  0.858200  1
  H  H64  1  -0.123800  0.422900  0.710600  1
  H  H65  1  -0.137900  0.314500  0.788400  1
  H  H66  1  -0.298000  0.424400  0.767000  1
  H  H67  1  0.281900  0.325000  0.978100  1
  H  H68  1  0.285400  0.550900  0.992900  1
  H  H69  1  0.088900  0.384500  0.950600  1
  H  H70  1  0.633100  0.954000  0.818000  1
  H  H71  1  0.669200  1.086500  0.905900  1
  H  H72  1  0.663700  0.860400  0.897600  1
  S  S73  1  -0.143200  -0.028990  0.320590  1
  S  S74  1  1.143200  1.028990  0.679410  1
  Si  Si75  1  0.756280  0.354280  0.175650  1.0
  Si  Si76  1  0.243720  0.645720  0.824350  1
