# generated using pymatgen
data_SiC22
_symmetry_space_group_name_H-M   'P 1'
_cell_length_a   8.72920000
_cell_length_b   11.04090000
_cell_length_c   19.42600000
_cell_angle_alpha   81.84200000
_cell_angle_beta   88.33280000
_cell_angle_gamma   75.96510000
_symmetry_Int_Tables_number   1
_chemical_formula_structural   SiC22
_chemical_formula_sum   'Si4 C88'
_cell_volume   1797.94538476
_cell_formula_units_Z   4
loop_
 _symmetry_equiv_pos_site_id
 _symmetry_equiv_pos_as_xyz
  1  'x, y, z'
loop_
 _atom_site_type_symbol
 _atom_site_label
 _atom_site_symmetry_multiplicity
 _atom_site_fract_x
 _atom_site_fract_y
 _atom_site_fract_z
 _atom_site_occupancy
  C  C1  1  0.480900  1.147900  0.585120  1
  C  C2  1  0.463500  1.008400  0.727180  1
  C  C3  1  0.306100  0.939400  0.601350  1
  C  C4  1  0.666667  0.878200  0.615020  1
  C  C5  1  0.488600  1.250700  0.558740  1
  C  C6  1  0.504000  1.105500  0.750340  1
  C  C7  1  0.414600  0.906600  0.777730  1
  C  C8  1  0.186100  1.022200  0.566830  1
  C  C9  1  0.310400  0.798800  0.614730  1
  C  C10  1  0.806200  0.925300  0.630290  1
  C  C11  1  0.495300  1.376100  0.528290  1
  C  C12  1  0.901000  0.884500  0.685770  1
  C  C13  1  0.369300  1.450500  0.485980  1
  C  C14  1  0.626700  1.422000  0.542990  1
  C  C15  1  0.239900  1.404500  0.469970  1
  C  C16  1  0.373300  1.578000  0.457010  1
  C  C17  1  0.630700  1.549500  0.514020  1
  C  C18  1  0.755500  1.347800  0.584940  1
  C  C19  1  0.117000  1.477100  0.427290  1
  C  C20  1  0.504700  1.623900  0.471710  1
  C  C21  1  0.244500  1.652200  0.415060  1
  C  C22  1  0.760100  1.595500  0.530030  1
  C  C23  1  0.881300  1.395400  0.600390  1
  C  C24  1  -0.012200  1.426800  0.409440  1
  C  C25  1  0.118700  1.604600  0.399610  1
  C  C26  1  0.511400  1.749300  0.441260  1
  C  C27  1  0.883000  1.522900  0.572710  1
  C  C28  1  1.009700  1.321400  0.644280  1
  C  C29  1  -0.130800  1.500500  0.367260  1
  C  C30  1  -0.009700  1.678600  0.355720  1
  C  C31  1  0.519100  1.852100  0.414880  1
  C  C32  1  1.012200  1.573200  0.590560  1
  C  C33  1  1.131500  1.372500  0.659770  1
  C  C34  1  -0.131500  1.627500  0.340230  1
  C  C35  1  1.130800  1.499500  0.632740  1
  C  C36  1  0.536500  1.991600  0.272820  1
  C  C37  1  0.693900  2.060600  0.398650  1
  C  C38  1  0.333333  2.121800  0.384980  1
  C  C39  1  0.496000  1.894500  0.249660  1
  C  C40  1  0.585400  2.093400  0.222270  1
  C  C41  1  0.813900  1.977800  0.433170  1
  C  C42  1  0.689600  2.201200  0.385270  1
  C  C43  1  0.193800  2.074700  0.369710  1
  C  C44  1  0.099000  2.115500  0.314230  1
  C  C45  1  0.445100  0.659800  1.091340  1
  C  C46  1  0.400200  0.490200  1.221510  1
  C  C47  1  0.256500  0.464900  1.084080  1
  C  C48  1  0.617600  0.390200  1.101590  1
  C  C49  1  0.462700  0.761300  1.065990  1
  C  C50  1  0.509500  0.534000  1.263310  1
  C  C51  1  0.277200  0.445100  1.251000  1
  C  C52  1  0.121300  0.564500  1.065970  1
  C  C53  1  0.260700  0.340100  1.072350  1
  C  C54  1  0.762400  0.426100  1.122860  1
  C  C55  1  0.481000  0.881700  1.032960  1
  C  C56  1  0.864600  0.360800  1.170200  1
  C  C57  1  0.365200  0.955600  0.984810  1
  C  C58  1  0.615400  0.923300  1.048790  1
  C  C59  1  0.231200  0.914700  0.967950  1
  C  C60  1  0.384600  1.076700  0.951210  1
  C  C61  1  0.634800  1.044400  1.015190  1
  C  C62  1  0.732200  0.850200  1.097300  1
  C  C63  1  0.120000  0.985500  0.919760  1
  C  C64  1  0.519000  1.118300  0.967040  1
  C  C65  1  0.267800  1.149800  0.902700  1
  C  C66  1  0.768800  1.085300  1.032050  1
  C  C67  1  0.861300  0.893900  1.114080  1
  C  C68  1  -0.015200  0.942300  0.901440  1
  C  C69  1  0.138700  1.106100  0.885920  1
  C  C70  1  0.537300  1.238700  0.934010  1
  C  C71  1  0.880000  1.014500  1.080240  1
  C  C72  1  0.976100  0.822700  1.165700  1
  C  C73  1  -0.119300  1.012100  0.853010  1
  C  C74  1  0.023900  1.177300  0.834300  1
  C  C75  1  0.554900  1.340200  0.908660  1
  C  C76  1  1.015200  1.057700  1.098560  1
  C  C77  1  1.100000  0.867700  1.181640  1
  C  C78  1  -0.100000  1.132300  0.818360  1
  C  C79  1  1.119300  0.987900  1.146990  1
  C  C80  1  0.599800  1.509800  0.778490  1
  C  C81  1  0.743500  1.535100  0.915920  1
  C  C82  1  0.382400  1.609800  0.898410  1
  C  C83  1  0.490500  1.466000  0.736690  1
  C  C84  1  0.722800  1.554900  0.749000  1
  C  C85  1  0.878700  1.435500  0.934030  1
  C  C86  1  0.739300  1.659900  0.927650  1
  C  C87  1  0.237600  1.573900  0.877140  1
  C  C88  1  0.135400  1.639200  0.829800  1
  Si  Si89  1  0.475480  0.992560  0.632630  1.0
  Si  Si90  1  0.524520  2.007440  0.367370  1
  Si  Si91  1  0.429020  0.498900  1.125560  1.0
  Si  Si92  1  0.570980  1.501100  0.874440  1
