# generated using pymatgen
data_GeH23(C11F2)2
_symmetry_space_group_name_H-M   'P 1'
_cell_length_a   7.62040000
_cell_length_b   8.05870000
_cell_length_c   17.00310000
_cell_angle_alpha   77.13800000
_cell_angle_beta   89.25000000
_cell_angle_gamma   85.76100000
_symmetry_Int_Tables_number   1
_chemical_formula_structural   GeH23(C11F2)2
_chemical_formula_sum   'Ge2 H46 C44 F8'
_cell_volume   1015.17912474
_cell_formula_units_Z   2
loop_
 _symmetry_equiv_pos_site_id
 _symmetry_equiv_pos_as_xyz
  1  'x, y, z'
loop_
 _atom_site_type_symbol
 _atom_site_label
 _atom_site_symmetry_multiplicity
 _atom_site_fract_x
 _atom_site_fract_y
 _atom_site_fract_z
 _atom_site_occupancy
  C  C1  1  0.690200  0.669700  0.275140  1
  C  C2  1  0.748900  1.005700  0.149600  1
  C  C3  1  1.042600  0.683400  0.179600  1
  C  C4  1  0.688300  0.628800  0.093400  1
  C  C5  1  0.630400  0.617800  0.340530  1
  C  C6  1  0.575900  1.067900  0.170900  1
  C  C7  1  0.832700  1.097300  0.078400  1
  C  C8  1  1.135600  0.759700  0.240700  1
  C  C9  1  1.067000  0.487500  0.200300  1
  C  C10  1  0.783000  0.658000  0.013600  1
  C  C11  1  0.491700  0.674000  0.085200  1
  C  C12  1  0.562700  0.557900  0.419680  1
  C  C13  1  0.604400  0.386900  0.461690  1
  C  C14  1  0.457800  0.671100  0.457240  1
  C  C15  1  0.704100  0.271100  0.424800  1
  C  C16  1  0.542200  0.328900  0.542760  1
  C  C17  1  0.395600  0.613100  0.538310  1
  C  C18  1  0.415400  0.841300  0.416420  1
  C  C19  1  0.741900  0.102900  0.464990  1
  C  C20  1  0.437300  0.442100  0.580320  1
  C  C21  1  0.584600  0.158700  0.583580  1
  C  C22  1  0.295900  0.728900  0.575200  1
  C  C23  1  0.318000  0.953800  0.453620  1
  C  C24  1  0.840500  -0.017800  0.428620  1
  C  C25  1  0.682000  0.046200  0.546380  1
  C  C26  1  0.369600  0.382200  0.659470  1
  C  C27  1  0.258100  0.897100  0.535010  1
  C  C28  1  0.276800  1.127900  0.413990  1
  C  C29  1  0.876700  -0.180800  0.469430  1
  C  C30  1  0.723200  -0.127900  0.586010  1
  C  C31  1  0.309800  0.330300  0.724860  1
  C  C32  1  0.159500  1.017800  0.571380  1
  C  C33  1  0.184100  1.236000  0.451080  1
  C  C34  1  0.815900  -0.236000  0.548920  1
  C  C35  1  0.123300  1.180800  0.530570  1
  C  C36  1  0.251100  -0.005700  0.850400  1
  C  C37  1  -0.042600  0.316600  0.820400  1
  C  C38  1  0.311700  0.371200  0.906600  1
  C  C39  1  0.424100  -0.067900  0.829100  1
  C  C40  1  0.167300  -0.097300  0.921600  1
  C  C41  1  -0.135600  0.240300  0.759300  1
  C  C42  1  -0.067000  0.512500  0.799700  1
  C  C43  1  0.217000  0.342000  0.986400  1
  C  C44  1  0.508300  0.326000  0.914800  1
  F  F45  1  0.898900  0.034100  0.353000  1
  F  F46  1  0.333800  1.182000  0.338300  1
  F  F47  1  0.972100  -0.293800  0.436170  1
  F  F48  1  0.666200  -0.182000  0.661700  1
  F  F49  1  0.101100  0.965900  0.647000  1
  F  F50  1  0.146700  1.400500  0.413920  1
  F  F51  1  0.853300  -0.400500  0.586080  1
  F  F52  1  0.027900  1.293800  0.563830  1
  Ge  Ge53  1  0.792600  0.755050  0.170990  1.0
  Ge  Ge54  1  0.207400  0.244950  0.829010  1
  H  H55  1  0.822200  1.032800  0.192800  1
  H  H56  1  1.096900  0.725000  0.125600  1
  H  H57  1  0.705200  0.504000  0.118400  1
  H  H58  1  0.568200  1.192900  0.159100  1
  H  H59  1  0.555500  1.023800  0.228500  1
  H  H60  1  0.486800  1.029200  0.139400  1
  H  H61  1  0.780800  1.071300  0.030500  1
  H  H62  1  0.958900  1.062700  0.080500  1
  H  H63  1  0.815400  1.220200  0.075700  1
  H  H64  1  1.078500  0.728200  0.293400  1
  H  H65  1  1.128700  0.884300  0.222600  1
  H  H66  1  1.259200  0.715700  0.245400  1
  H  H67  1  1.192700  0.451500  0.206200  1
  H  H68  1  1.017200  0.443000  0.157000  1
  H  H69  1  1.006600  0.443000  0.251100  1
  H  H70  1  0.725000  0.599900  -0.022700  1
  H  H71  1  0.905400  0.612500  0.022000  1
  H  H72  1  0.778600  0.780600  -0.010300  1
  H  H73  1  0.470000  0.796300  0.061500  1
  H  H74  1  0.437000  0.647100  0.138600  1
  H  H75  1  0.441100  0.608200  0.050300  1
  H  H76  1  0.746100  0.308900  0.371400  1
  H  H77  1  0.454300  0.879500  0.362600  1
  H  H78  1  0.545700  0.120500  0.637400  1
  H  H79  1  0.253900  0.691100  0.628600  1
  H  H80  1  0.177800  -0.032800  0.807200  1
  H  H81  1  -0.096900  0.275000  0.874400  1
  H  H82  1  0.294800  0.496000  0.881600  1
  H  H83  1  0.431800  -0.192900  0.840900  1
  H  H84  1  0.444500  -0.023800  0.771500  1
  H  H85  1  0.513200  -0.029200  0.860600  1
  H  H86  1  0.219200  -0.071300  0.969500  1
  H  H87  1  0.041100  -0.062700  0.919500  1
  H  H88  1  0.184600  -0.220200  0.924300  1
  H  H89  1  -0.078500  0.271800  0.706600  1
  H  H90  1  -0.128700  0.115700  0.777400  1
  H  H91  1  -0.259200  0.284300  0.754600  1
  H  H92  1  -0.192700  0.548500  0.793800  1
  H  H93  1  -0.017200  0.557000  0.843000  1
  H  H94  1  -0.006600  0.557000  0.748900  1
  H  H95  1  0.275000  0.400100  1.022700  1
  H  H96  1  0.094600  0.387500  0.978000  1
  H  H97  1  0.221400  0.219400  1.010300  1
  H  H98  1  0.530000  0.203700  0.938500  1
  H  H99  1  0.563000  0.352900  0.861400  1
  H  H100  1  0.558900  0.391800  0.949700  1
