# generated using pymatgen
data_SiH20C18SF
_symmetry_space_group_name_H-M   'P 1'
_cell_length_a   7.32610000
_cell_length_b   33.40450000
_cell_length_c   7.20590000
_cell_angle_alpha   90.00000000
_cell_angle_beta   107.51540000
_cell_angle_gamma   90.00000000
_symmetry_Int_Tables_number   1
_chemical_formula_structural   SiH20C18SF
_chemical_formula_sum   'Si4 H80 C72 S4 F4'
_cell_volume   1681.70079085
_cell_formula_units_Z   4
loop_
 _symmetry_equiv_pos_site_id
 _symmetry_equiv_pos_as_xyz
  1  'x, y, z'
loop_
 _atom_site_type_symbol
 _atom_site_label
 _atom_site_symmetry_multiplicity
 _atom_site_fract_x
 _atom_site_fract_y
 _atom_site_fract_z
 _atom_site_occupancy
  C  C1  1  0.536600  0.608400  0.261800  1
  C  C2  1  0.496900  0.654000  -0.108300  1
  C  C3  1  0.310000  0.683000  0.212600  1
  C  C4  1  0.750000  0.685600  0.269000  1
  C  C5  1  0.531800  0.575960  0.331500  1
  C  C6  1  0.335200  0.626440  -0.217600  1
  C  C7  1  0.219700  0.717400  0.084100  1
  C  C8  1  0.748600  0.728230  0.231900  1
  C  C9  1  0.853400  0.676100  0.487300  1
  C  C10  1  0.518700  0.537270  0.416600  1
  C  C11  1  0.611300  0.531000  0.615600  1
  C  C12  1  0.409500  0.506850  0.297600  1
  C  C13  1  0.727500  0.561190  0.733800  1
  C  C14  1  0.590500  0.493150  0.702400  1
  C  C15  1  0.388700  0.469000  0.384400  1
  C  C16  1  0.320200  0.512310  0.094900  1
  C  C17  1  0.812900  0.554460  0.927100  1
  C  C18  1  0.481300  0.462730  0.583400  1
  C  C19  1  0.679800  0.487690  0.905100  1
  C  C20  1  0.272500  0.438810  0.266200  1
  C  C21  1  0.213000  0.482690  -0.015800  1
  C  C22  1  0.787000  0.517310  1.015800  1
  C  C23  1  0.468200  0.424040  0.668500  1
  C  C24  1  0.187100  0.445540  0.072900  1
  C  C25  1  0.120000  0.483100  -0.219000  1
  C  C26  1  0.880000  0.516900  1.219000  1
  C  C27  1  0.975900  0.551690  1.277900  1
  C  C28  1  0.463400  0.391600  0.738200  1
  C  C29  1  0.024100  0.448310  -0.277900  1
  C  C30  1  0.503100  0.346000  1.108300  1
  C  C31  1  0.690000  0.317000  0.787400  1
  C  C32  1  0.250000  0.314400  0.731000  1
  C  C33  1  0.664800  0.373560  1.217600  1
  C  C34  1  0.780300  0.282600  0.915900  1
  C  C35  1  0.251400  0.271770  0.768100  1
  C  C36  1  0.146600  0.323900  0.512700  1
  C  C37  1  0.463400  0.108400  0.238200  1
  C  C38  1  0.503100  0.154000  0.608300  1
  C  C39  1  0.690000  0.183000  0.287400  1
  C  C40  1  0.250000  0.185600  0.231000  1
  C  C41  1  0.468200  0.075960  0.168500  1
  C  C42  1  0.664800  0.126440  0.717600  1
  C  C43  1  0.780300  0.217400  0.415900  1
  C  C44  1  0.251400  0.228230  0.268100  1
  C  C45  1  0.146600  0.176100  0.012700  1
  C  C46  1  0.481300  0.037270  0.083400  1
  C  C47  1  0.388700  0.031000  -0.115600  1
  C  C48  1  0.590500  0.006850  0.202400  1
  C  C49  1  0.272500  0.061190  -0.233800  1
  C  C50  1  0.409500  -0.006850  -0.202400  1
  C  C51  1  0.611300  -0.031000  0.115600  1
  C  C52  1  0.679800  0.012310  0.405100  1
  C  C53  1  0.187100  0.054460  -0.427100  1
  C  C54  1  0.518700  -0.037270  -0.083400  1
  C  C55  1  0.320200  -0.012310  -0.405100  1
  C  C56  1  0.727500  -0.061190  0.233800  1
  C  C57  1  0.787000  -0.017310  0.515800  1
  C  C58  1  0.213000  0.017310  -0.515800  1
  C  C59  1  0.531800  -0.075960  -0.168500  1
  C  C60  1  0.812900  -0.054460  0.427100  1
  C  C61  1  0.880000  -0.016900  0.719000  1
  C  C62  1  0.120000  0.016900  -0.719000  1
  C  C63  1  0.024100  0.051690  -0.777900  1
  C  C64  1  0.536600  -0.108400  -0.238200  1
  C  C65  1  0.975900  -0.051690  0.777900  1
  C  C66  1  0.496900  -0.154000  -0.608300  1
  C  C67  1  0.310000  -0.183000  -0.287400  1
  C  C68  1  0.750000  -0.185600  -0.231000  1
  C  C69  1  0.335200  -0.126440  -0.717600  1
  C  C70  1  0.219700  -0.217400  -0.415900  1
  C  C71  1  0.748600  -0.228230  -0.268100  1
  C  C72  1  0.853400  -0.176100  -0.012700  1
  F  F73  1  1.082900  0.562260  1.459300  1
  F  F74  1  -0.082900  0.437740  -0.459300  1
  F  F75  1  -0.082900  0.062260  -0.959300  1
  F  F76  1  1.082900  -0.062260  0.959300  1
  H  H77  1  0.473400  0.681000  -0.167900  1
  H  H78  1  0.618100  0.643900  -0.125000  1
  H  H79  1  0.211100  0.662100  0.201600  1
  H  H80  1  0.350800  0.692400  0.349100  1
  H  H81  1  0.839200  0.674800  0.200100  1
  H  H82  1  0.358500  0.599400  -0.162200  1
  H  H83  1  0.329100  0.625600  -0.355200  1
  H  H84  1  0.213600  0.636600  -0.205700  1
  H  H85  1  0.313200  0.739100  0.099600  1
  H  H86  1  0.108900  0.727100  0.120700  1
  H  H87  1  0.177900  0.708600  -0.051800  1
  H  H88  1  0.682900  0.733400  0.094000  1
  H  H89  1  0.681400  0.742100  0.311900  1
  H  H90  1  0.880500  0.738100  0.264700  1
  H  H91  1  0.852300  0.647100  0.508300  1
  H  H92  1  0.986000  0.685500  0.521800  1
  H  H93  1  0.786900  0.689600  0.569000  1
  H  H94  1  0.745500  0.586100  0.677800  1
  H  H95  1  0.335600  0.537000  0.035700  1
  H  H96  1  0.664400  0.463000  0.964300  1
  H  H97  1  0.254500  0.413900  0.322200  1
  H  H98  1  0.123400  0.504800  -0.302800  1
  H  H99  1  0.876600  0.495200  1.302800  1
  H  H100  1  0.526600  0.319000  1.167900  1
  H  H101  1  0.381900  0.356100  1.125000  1
  H  H102  1  0.788900  0.337900  0.798400  1
  H  H103  1  0.649200  0.307600  0.650900  1
  H  H104  1  0.160800  0.325200  0.799900  1
  H  H105  1  0.641500  0.400600  1.162200  1
  H  H106  1  0.670900  0.374400  1.355200  1
  H  H107  1  0.786400  0.363400  1.205700  1
  H  H108  1  0.686800  0.260900  0.900400  1
  H  H109  1  0.891100  0.272900  0.879300  1
  H  H110  1  0.822100  0.291400  1.051800  1
  H  H111  1  0.317100  0.266600  0.906000  1
  H  H112  1  0.318600  0.257900  0.688100  1
  H  H113  1  0.119500  0.261900  0.735300  1
  H  H114  1  0.147700  0.352900  0.491700  1
  H  H115  1  0.014000  0.314500  0.478200  1
  H  H116  1  0.213100  0.310400  0.431000  1
  H  H117  1  0.526600  0.181000  0.667900  1
  H  H118  1  0.381900  0.143900  0.625000  1
  H  H119  1  0.788900  0.162100  0.298400  1
  H  H120  1  0.649200  0.192400  0.150900  1
  H  H121  1  0.160800  0.174800  0.299900  1
  H  H122  1  0.641500  0.099400  0.662200  1
  H  H123  1  0.670900  0.125600  0.855200  1
  H  H124  1  0.786400  0.136600  0.705700  1
  H  H125  1  0.686800  0.239100  0.400400  1
  H  H126  1  0.891100  0.227100  0.379300  1
  H  H127  1  0.822100  0.208600  0.551800  1
  H  H128  1  0.317100  0.233400  0.406000  1
  H  H129  1  0.318600  0.242100  0.188100  1
  H  H130  1  0.119500  0.238100  0.235300  1
  H  H131  1  0.147700  0.147100  -0.008300  1
  H  H132  1  0.014000  0.185500  -0.021800  1
  H  H133  1  0.213100  0.189600  -0.069000  1
  H  H134  1  0.254500  0.086100  -0.177800  1
  H  H135  1  0.664400  0.037000  0.464300  1
  H  H136  1  0.335600  -0.037000  -0.464300  1
  H  H137  1  0.745500  -0.086100  0.177800  1
  H  H138  1  0.876600  0.004800  0.802800  1
  H  H139  1  0.123400  -0.004800  -0.802800  1
  H  H140  1  0.473400  -0.181000  -0.667900  1
  H  H141  1  0.618100  -0.143900  -0.625000  1
  H  H142  1  0.211100  -0.162100  -0.298400  1
  H  H143  1  0.350800  -0.192400  -0.150900  1
  H  H144  1  0.839200  -0.174800  -0.299900  1
  H  H145  1  0.358500  -0.099400  -0.662200  1
  H  H146  1  0.329100  -0.125600  -0.855200  1
  H  H147  1  0.213600  -0.136600  -0.705700  1
  H  H148  1  0.313200  -0.239100  -0.400400  1
  H  H149  1  0.108900  -0.227100  -0.379300  1
  H  H150  1  0.177900  -0.208600  -0.551800  1
  H  H151  1  0.682900  -0.233400  -0.406000  1
  H  H152  1  0.681400  -0.242100  -0.188100  1
  H  H153  1  0.880500  -0.238100  -0.235300  1
  H  H154  1  0.852300  -0.147100  0.008300  1
  H  H155  1  0.986000  -0.185500  0.021800  1
  H  H156  1  0.786900  -0.189600  0.069000  1
  S  S157  1  0.962300  0.587340  1.096700  1
  S  S158  1  0.037700  0.412660  -0.096700  1
  S  S159  1  0.037700  0.087340  -0.596700  1
  S  S160  1  0.962300  -0.087340  0.596700  1
  Si  Si161  1  0.527210  0.658750  0.157170  1.0
  Si  Si162  1  0.472790  0.341250  0.842830  1
  Si  Si163  1  0.472790  0.158750  0.342830  1.0
  Si  Si164  1  0.527210  -0.158750  -0.342830  1
