# generated using pymatgen
data_SiH36C31S3F
_symmetry_space_group_name_H-M   'P 1'
_cell_length_a   8.09380000
_cell_length_b   11.61600000
_cell_length_c   16.82100000
_cell_angle_alpha   105.96300000
_cell_angle_beta   101.94200000
_cell_angle_gamma   94.87400000
_symmetry_Int_Tables_number   1
_chemical_formula_structural   SiH36C31S3F
_chemical_formula_sum   'Si2 H72 C62 S6 F2'
_cell_volume   1470.56299557
_cell_formula_units_Z   2
loop_
 _symmetry_equiv_pos_site_id
 _symmetry_equiv_pos_as_xyz
  1  'x, y, z'
loop_
 _atom_site_type_symbol
 _atom_site_label
 _atom_site_symmetry_multiplicity
 _atom_site_fract_x
 _atom_site_fract_y
 _atom_site_fract_z
 _atom_site_occupancy
  C  C1  1  0.361800  0.602400  0.286500  1
  C  C2  1  0.357900  0.814800  0.221000  1
  C  C3  1  0.040200  0.623500  0.166700  1
  C  C4  1  0.336000  0.547100  0.102200  1
  C  C5  1  0.410400  0.571800  0.347800  1
  C  C6  1  0.525100  0.858400  0.267500  1
  C  C7  1  0.287400  0.866900  0.147200  1
  C  C8  1  -0.038600  0.484600  0.144300  1
  C  C9  1  -0.051000  0.705100  0.225600  1
  C  C10  1  0.264400  0.415300  0.088200  1
  C  C11  1  0.457800  0.534200  0.423600  1
  C  C12  1  0.311000  0.317400  0.022000  1
  C  C13  1  0.333900  0.470500  0.449500  1
  C  C14  1  0.624100  0.563000  0.475200  1
  C  C15  1  0.236800  0.191200  0.011800  1
  C  C16  1  0.375900  0.437000  0.524800  1
  C  C17  1  0.666100  0.529500  0.550500  1
  C  C18  1  0.790300  0.625600  0.474100  1
  C  C19  1  0.280800  0.088300  -0.058500  1
  C  C20  1  0.542200  0.465800  0.576400  1
  C  C21  1  0.209700  0.374400  0.525900  1
  C  C22  1  0.076300  0.367000  0.459100  1
  C  C23  1  0.923700  0.633000  0.540900  1
  C  C24  1  0.215200  -0.037400  -0.067100  1
  C  C25  1  0.589600  0.428200  0.652200  1
  C  C26  1  -0.093400  0.309000  0.450400  1
  C  C27  1  1.093400  0.691000  0.549600  1
  C  C28  1  0.283400  -0.129800  -0.126300  1
  C  C29  1  0.638200  0.397600  0.713500  1
  C  C30  1  -0.227700  0.298600  0.384100  1
  C  C31  1  1.227700  0.701400  0.615900  1
  C  C32  1  0.217200  -0.254900  -0.126900  1
  C  C33  1  -0.388700  0.239000  0.390100  1
  C  C34  1  -0.355900  0.206000  0.464400  1
  C  C35  1  1.388700  0.761000  0.609900  1
  C  C36  1  1.355900  0.794000  0.535600  1
  C  C37  1  0.642100  0.185200  0.779000  1
  C  C38  1  0.959800  0.376500  0.833300  1
  C  C39  1  0.664000  0.452900  0.897800  1
  C  C40  1  -0.545700  0.209000  0.333700  1
  C  C41  1  -0.491500  0.143000  0.485000  1
  C  C42  1  1.545700  0.791000  0.666300  1
  C  C43  1  1.491500  0.857000  0.515000  1
  C  C44  1  0.474900  0.141600  0.732500  1
  C  C45  1  0.712600  0.133100  0.852800  1
  C  C46  1  1.038600  0.515400  0.855700  1
  C  C47  1  1.051000  0.294900  0.774400  1
  C  C48  1  0.735600  0.584700  0.911800  1
  C  C49  1  -0.679000  0.141000  0.352400  1
  C  C50  1  -0.647000  0.111000  0.427700  1
  C  C51  1  1.679000  0.859000  0.647600  1
  C  C52  1  1.647000  0.889000  0.572300  1
  C  C53  1  0.689000  0.682600  0.978000  1
  C  C54  1  -0.804800  0.043500  0.431600  1
  C  C55  1  1.804800  0.956500  0.568400  1
  C  C56  1  0.763200  0.808800  0.988200  1
  C  C57  1  -0.939500  0.054000  0.373100  1
  C  C58  1  1.939500  0.946000  0.626900  1
  C  C59  1  0.719200  0.911700  1.058500  1
  C  C60  1  0.784800  1.037400  1.067100  1
  C  C61  1  0.716600  1.129800  1.126300  1
  C  C62  1  0.782800  1.254900  1.126900  1
  F  F63  1  -1.091200  -0.009800  0.372200  1
  F  F64  1  2.091200  1.009800  0.627800  1
  H  H65  1  0.291900  0.850600  0.263400  1
  H  H66  1  0.005700  0.642300  0.111700  1
  H  H67  1  0.291800  0.569500  0.050000  1
  H  H68  1  0.462000  0.555400  0.112300  1
  H  H69  1  0.603600  0.832200  0.231200  1
  H  H70  1  0.548800  0.826800  0.316300  1
  H  H71  1  0.541100  0.947100  0.287800  1
  H  H72  1  0.328800  0.954000  0.164600  1
  H  H73  1  0.162300  0.853400  0.133600  1
  H  H74  1  0.326800  0.826200  0.096800  1
  H  H75  1  0.008200  0.453600  0.191600  1
  H  H76  1  -0.009200  0.437600  0.092500  1
  H  H77  1  -0.163100  0.477100  0.135100  1
  H  H78  1  -0.163400  0.711300  0.192900  1
  H  H79  1  0.017100  0.785900  0.250500  1
  H  H80  1  -0.065400  0.670600  0.271200  1
  H  H81  1  0.299200  0.398100  0.143300  1
  H  H82  1  0.138300  0.408300  0.074300  1
  H  H83  1  0.275600  0.333333  -0.033500  1
  H  H84  1  0.436900  0.323100  0.035600  1
  H  H85  1  0.110900  0.186300  -0.000300  1
  H  H86  1  0.274500  0.174900  0.066900  1
  H  H87  1  0.803400  0.658600  0.429600  1
  H  H88  1  0.238300  0.102800  -0.113900  1
  H  H89  1  0.406800  0.096100  -0.048000  1
  H  H90  1  0.196600  0.341400  0.570400  1
  H  H91  1  0.089200  -0.050100  -0.087100  1
  H  H92  1  0.243000  -0.049800  -0.010200  1
  H  H93  1  0.409800  -0.116000  -0.108500  1
  H  H94  1  0.249300  -0.122400  -0.184400  1
  H  H95  1  -0.217700  0.328200  0.337700  1
  H  H96  1  1.217700  0.671800  0.662300  1
  H  H97  1  0.246300  -0.261000  -0.068900  1
  H  H98  1  0.269300  -0.314500  -0.163600  1
  H  H99  1  0.092800  -0.270900  -0.148700  1
  H  H100  1  0.708100  0.149400  0.736600  1
  H  H101  1  0.994300  0.357700  0.888300  1
  H  H102  1  0.708200  0.430500  0.950000  1
  H  H103  1  0.538000  0.444600  0.887700  1
  H  H104  1  -0.564900  0.234000  0.283600  1
  H  H105  1  -0.474600  0.123700  0.537100  1
  H  H106  1  1.564900  0.766000  0.716400  1
  H  H107  1  1.474600  0.876300  0.462900  1
  H  H108  1  0.396400  0.167800  0.768800  1
  H  H109  1  0.451200  0.173200  0.683700  1
  H  H110  1  0.458900  0.052900  0.712200  1
  H  H111  1  0.671200  0.046000  0.835400  1
  H  H112  1  0.837700  0.146600  0.866400  1
  H  H113  1  0.673200  0.173800  0.903200  1
  H  H114  1  0.991800  0.546400  0.808400  1
  H  H115  1  1.009200  0.562400  0.907500  1
  H  H116  1  1.163100  0.522900  0.864900  1
  H  H117  1  1.163400  0.288700  0.807100  1
  H  H118  1  0.982900  0.214100  0.749500  1
  H  H119  1  1.065400  0.329400  0.728800  1
  H  H120  1  0.700800  0.601900  0.856700  1
  H  H121  1  0.861700  0.591700  0.925700  1
  H  H122  1  0.724400  0.666667  1.033500  1
  H  H123  1  0.563100  0.676900  0.964400  1
  H  H124  1  -0.811200  -0.001800  0.470300  1
  H  H125  1  1.811200  1.001800  0.529700  1
  H  H126  1  0.889100  0.813700  1.000300  1
  H  H127  1  0.725500  0.825100  0.933100  1
  H  H128  1  0.761700  0.897200  1.113900  1
  H  H129  1  0.593200  0.903900  1.048000  1
  H  H130  1  0.910800  1.050100  1.087100  1
  H  H131  1  0.757000  1.049800  1.010200  1
  H  H132  1  0.590200  1.116000  1.108500  1
  H  H133  1  0.750700  1.122400  1.184400  1
  H  H134  1  0.753700  1.261000  1.068900  1
  H  H135  1  0.730700  1.314500  1.163600  1
  H  H136  1  0.907200  1.270900  1.148700  1
  S  S137  1  0.132100  0.432400  0.387260  1
  S  S138  1  0.867900  0.567600  0.612740  1
  S  S139  1  -0.149400  0.243700  0.522130  1
  S  S140  1  1.149400  0.756300  0.477870  1
  S  S141  1  -0.886400  0.103500  0.293900  1
  S  S142  1  1.886400  0.896500  0.706100  1
  Si  Si143  1  0.279100  0.652770  0.193350  1.0
  Si  Si144  1  0.720900  0.347230  0.806650  1
