# generated using pymatgen
data_SiH19C17Se
_symmetry_space_group_name_H-M   'P 1'
_cell_length_a   6.26360000
_cell_length_b   18.05890000
_cell_length_c   13.89480000
_cell_angle_alpha   90.00000000
_cell_angle_beta   90.87900000
_cell_angle_gamma   90.00000000
_symmetry_Int_Tables_number   1
_chemical_formula_structural   SiH19C17Se
_chemical_formula_sum   'Si4 H76 C68 Se4'
_cell_volume   1571.50764750
_cell_formula_units_Z   4
loop_
 _symmetry_equiv_pos_site_id
 _symmetry_equiv_pos_as_xyz
  1  'x, y, z'
loop_
 _atom_site_type_symbol
 _atom_site_label
 _atom_site_symmetry_multiplicity
 _atom_site_fract_x
 _atom_site_fract_y
 _atom_site_fract_z
 _atom_site_occupancy
  C  C1  1  0.166000  0.710570  0.932870  1
  C  C2  1  0.568000  0.798670  0.922030  1
  C  C3  1  0.143100  0.878850  0.946740  1
  C  C4  1  0.244000  0.799900  0.755110  1
  C  C5  1  0.112500  0.648140  0.952480  1
  C  C6  1  0.614800  0.797600  1.030100  1
  C  C7  1  0.249100  0.953050  0.923200  1
  C  C8  1  0.043300  0.765320  0.714700  1
  C  C9  1  0.055100  0.573790  0.976300  1
  C  C10  1  -0.130600  0.541750  0.934640  1
  C  C11  1  0.187900  0.533130  1.040760  1
  C  C12  1  -0.260400  0.581210  0.867280  1
  C  C13  1  -0.187900  0.466870  0.959240  1
  C  C14  1  0.130600  0.458250  1.065360  1
  C  C15  1  0.375000  0.564360  1.081640  1
  C  C16  1  -0.445000  0.548800  0.824000  1
  C  C17  1  -0.055100  0.426210  1.023700  1
  C  C18  1  -0.375000  0.435640  0.918360  1
  C  C19  1  0.260400  0.418790  1.132720  1
  C  C20  1  0.494000  0.524600  1.145000  1
  C  C21  1  -0.584500  0.586000  0.759100  1
  C  C22  1  -0.494000  0.475400  0.855000  1
  C  C23  1  -0.112500  0.351860  1.047520  1
  C  C24  1  0.445000  0.451200  1.176000  1
  C  C25  1  -0.748900  0.541600  0.728500  1
  C  C26  1  -0.166000  0.289430  1.067130  1
  C  C27  1  0.584500  0.414000  1.240900  1
  C  C28  1  0.748900  0.458400  1.271500  1
  C  C29  1  -0.568000  0.201330  1.077970  1
  C  C30  1  -0.143100  0.121150  1.053260  1
  C  C31  1  -0.244000  0.200100  1.244890  1
  C  C32  1  -0.614800  0.202400  0.969900  1
  C  C33  1  -0.249100  0.046950  1.076800  1
  C  C34  1  -0.043300  0.234680  1.285300  1
  C  C35  1  -0.166000  0.210570  1.567130  1
  C  C36  1  -0.568000  0.298670  1.577970  1
  C  C37  1  -0.143100  0.378850  1.553260  1
  C  C38  1  -0.244000  0.299900  1.744890  1
  C  C39  1  -0.112500  0.148140  1.547520  1
  C  C40  1  -0.614800  0.297600  1.469900  1
  C  C41  1  -0.249100  0.453050  1.576800  1
  C  C42  1  -0.043300  0.265320  1.785300  1
  C  C43  1  -0.055100  0.073790  1.523700  1
  C  C44  1  0.130600  0.041750  1.565360  1
  C  C45  1  -0.187900  0.033130  1.459240  1
  C  C46  1  0.260400  0.081210  1.632720  1
  C  C47  1  0.187900  -0.033130  1.540760  1
  C  C48  1  -0.130600  -0.041750  1.434640  1
  C  C49  1  -0.375000  0.064360  1.418360  1
  C  C50  1  0.445000  0.048800  1.676000  1
  C  C51  1  0.055100  -0.073790  1.476300  1
  C  C52  1  0.375000  -0.064360  1.581640  1
  C  C53  1  -0.260400  -0.081210  1.367280  1
  C  C54  1  -0.494000  0.024600  1.355000  1
  C  C55  1  0.584500  0.086000  1.740900  1
  C  C56  1  0.494000  -0.024600  1.645000  1
  C  C57  1  0.112500  -0.148140  1.452480  1
  C  C58  1  -0.445000  -0.048800  1.324000  1
  C  C59  1  0.748900  0.041600  1.771500  1
  C  C60  1  0.166000  -0.210570  1.432870  1
  C  C61  1  -0.584500  -0.086000  1.259100  1
  C  C62  1  -0.748900  -0.041600  1.228500  1
  C  C63  1  0.568000  -0.298670  1.422030  1
  C  C64  1  0.143100  -0.378850  1.446740  1
  C  C65  1  0.244000  -0.299900  1.255110  1
  C  C66  1  0.614800  -0.297600  1.530100  1
  C  C67  1  0.249100  -0.453050  1.423200  1
  C  C68  1  0.043300  -0.265320  1.214700  1
  H  H69  1  0.635900  0.754900  0.892500  1
  H  H70  1  0.634400  0.843400  0.894100  1
  H  H71  1  -0.007900  0.880300  0.924600  1
  H  H72  1  0.144600  0.871800  1.017400  1
  H  H73  1  0.248800  0.852100  0.733500  1
  H  H74  1  0.367700  0.774200  0.726700  1
  H  H75  1  0.567400  0.844300  1.058700  1
  H  H76  1  0.768700  0.791700  1.041500  1
  H  H77  1  0.538600  0.756300  1.059600  1
  H  H78  1  0.396400  0.953000  0.948100  1
  H  H79  1  0.169400  0.993400  0.953300  1
  H  H80  1  0.249400  0.960200  0.853300  1
  H  H81  1  0.043600  0.712100  0.728800  1
  H  H82  1  0.036800  0.772800  0.644900  1
  H  H83  1  -0.081300  0.788400  0.744200  1
  H  H84  1  -0.222700  0.630500  0.850700  1
  H  H85  1  0.417000  0.613200  1.064800  1
  H  H86  1  -0.417000  0.386800  0.935200  1
  H  H87  1  0.222700  0.369500  1.149300  1
  H  H88  1  -0.566000  0.635800  0.739000  1
  H  H89  1  -0.854600  0.557200  0.683100  1
  H  H90  1  0.566000  0.364200  1.261000  1
  H  H91  1  0.854600  0.442800  1.316900  1
  H  H92  1  -0.635900  0.245100  1.107500  1
  H  H93  1  -0.634400  0.156600  1.105900  1
  H  H94  1  0.007900  0.119700  1.075400  1
  H  H95  1  -0.144600  0.128200  0.982600  1
  H  H96  1  -0.248800  0.147900  1.266500  1
  H  H97  1  -0.367700  0.225800  1.273300  1
  H  H98  1  -0.567400  0.155700  0.941300  1
  H  H99  1  -0.768700  0.208300  0.958500  1
  H  H100  1  -0.538600  0.243700  0.940400  1
  H  H101  1  -0.396400  0.047000  1.051900  1
  H  H102  1  -0.169400  0.006600  1.046700  1
  H  H103  1  -0.249400  0.039800  1.146700  1
  H  H104  1  -0.043600  0.287900  1.271200  1
  H  H105  1  -0.036800  0.227200  1.355100  1
  H  H106  1  0.081300  0.211600  1.255800  1
  H  H107  1  -0.635900  0.254900  1.607500  1
  H  H108  1  -0.634400  0.343400  1.605900  1
  H  H109  1  0.007900  0.380300  1.575400  1
  H  H110  1  -0.144600  0.371800  1.482600  1
  H  H111  1  -0.248800  0.352100  1.766500  1
  H  H112  1  -0.367700  0.274200  1.773300  1
  H  H113  1  -0.567400  0.344300  1.441300  1
  H  H114  1  -0.768700  0.291700  1.458500  1
  H  H115  1  -0.538600  0.256300  1.440400  1
  H  H116  1  -0.396400  0.453000  1.551900  1
  H  H117  1  -0.169400  0.493400  1.546700  1
  H  H118  1  -0.249400  0.460200  1.646700  1
  H  H119  1  -0.043600  0.212100  1.771200  1
  H  H120  1  -0.036800  0.272800  1.855100  1
  H  H121  1  0.081300  0.288400  1.755800  1
  H  H122  1  0.222700  0.130500  1.649300  1
  H  H123  1  -0.417000  0.113200  1.435200  1
  H  H124  1  0.417000  -0.113200  1.564800  1
  H  H125  1  -0.222700  -0.130500  1.350700  1
  H  H126  1  0.566000  0.135800  1.761000  1
  H  H127  1  0.854600  0.057200  1.816900  1
  H  H128  1  -0.566000  -0.135800  1.239000  1
  H  H129  1  -0.854600  -0.057200  1.183100  1
  H  H130  1  0.635900  -0.254900  1.392500  1
  H  H131  1  0.634400  -0.343400  1.394100  1
  H  H132  1  -0.007900  -0.380300  1.424600  1
  H  H133  1  0.144600  -0.371800  1.517400  1
  H  H134  1  0.248800  -0.352100  1.233500  1
  H  H135  1  0.367700  -0.274200  1.226700  1
  H  H136  1  0.567400  -0.344300  1.558700  1
  H  H137  1  0.768700  -0.291700  1.541500  1
  H  H138  1  0.538600  -0.256300  1.559600  1
  H  H139  1  0.396400  -0.453000  1.448100  1
  H  H140  1  0.169400  -0.493400  1.453300  1
  H  H141  1  0.249400  -0.460200  1.353300  1
  H  H142  1  0.043600  -0.212100  1.228800  1
  H  H143  1  0.036800  -0.272800  1.144900  1
  H  H144  1  -0.081300  -0.288400  1.244200  1
  Se  Se145  1  0.746630  0.552920  1.215560  1
  Se  Se146  1  -0.746630  0.447080  0.784440  1
  Se  Se147  1  -0.746630  0.052920  1.284440  1
  Se  Se148  1  0.746630  -0.052920  1.715560  1
  Si  Si149  1  0.278360  0.798410  0.889450  1.0
  Si  Si150  1  -0.278360  0.201590  1.110550  1
  Si  Si151  1  -0.278360  0.298410  1.610550  1.0
  Si  Si152  1  0.278360  -0.298410  1.389450  1
