# generated using pymatgen
data_SiH18C29SF
_symmetry_space_group_name_H-M   'P 1'
_cell_length_a   15.50570000
_cell_length_b   8.31050000
_cell_length_c   17.70970000
_cell_angle_alpha   90.00000000
_cell_angle_beta   101.11700000
_cell_angle_gamma   90.00000000
_symmetry_Int_Tables_number   1
_chemical_formula_structural   SiH18C29SF
_chemical_formula_sum   'Si4 H72 C116 S4 F4'
_cell_volume   2239.25208203
_cell_formula_units_Z   4
loop_
 _symmetry_equiv_pos_site_id
 _symmetry_equiv_pos_as_xyz
  1  'x, y, z'
loop_
 _atom_site_type_symbol
 _atom_site_label
 _atom_site_symmetry_multiplicity
 _atom_site_fract_x
 _atom_site_fract_y
 _atom_site_fract_z
 _atom_site_occupancy
  C  C1  1  0.511750  0.131400  0.721460  1
  C  C2  1  0.572400  0.093900  0.892960  1
  C  C3  1  0.420810  0.326700  0.824540  1
  C  C4  1  0.610730  0.400700  0.808700  1
  C  C5  1  0.506510  0.082500  0.656770  1
  C  C6  1  0.598540  -0.060300  0.876970  1
  C  C7  1  0.582780  0.140300  0.969820  1
  C  C8  1  0.342100  0.254400  0.789500  1
  C  C9  1  0.415860  0.463200  0.869370  1
  C  C10  1  0.591810  0.524800  0.754420  1
  C  C11  1  0.694680  0.396900  0.854400  1
  C  C12  1  0.503290  0.038700  0.578230  1
  C  C13  1  0.633960  -0.165700  0.936030  1
  C  C14  1  0.618850  0.036400  1.028750  1
  C  C15  1  0.261380  0.313900  0.799350  1
  C  C16  1  0.335430  0.521100  0.880360  1
  C  C17  1  0.654090  0.638300  0.746140  1
  C  C18  1  0.757260  0.509500  0.846280  1
  C  C19  1  0.535270  0.150500  0.529850  1
  C  C20  1  0.468230  -0.111700  0.549790  1
  C  C21  1  0.644660  -0.115900  1.011300  1
  C  C22  1  0.258190  0.446300  0.845910  1
  C  C23  1  0.737520  0.631300  0.791760  1
  C  C24  1  0.571830  0.300400  0.558830  1
  C  C25  1  0.531770  0.111700  0.450210  1
  C  C26  1  0.464730  -0.150500  0.470150  1
  C  C27  1  0.437960  -0.225700  0.598510  1
  C  C28  1  0.601900  0.406000  0.510760  1
  C  C29  1  0.496710  -0.038700  0.421770  1
  C  C30  1  0.562040  0.225700  0.401490  1
  C  C31  1  0.428170  -0.300400  0.441170  1
  C  C32  1  0.403400  -0.369300  0.568810  1
  C  C33  1  0.596600  0.369300  0.431190  1
  C  C34  1  0.493490  -0.082500  0.343230  1
  C  C35  1  0.398100  -0.406000  0.489240  1
  C  C36  1  0.372000  -0.496500  0.608900  1
  C  C37  1  0.628000  0.496500  0.391100  1
  C  C38  1  0.656000  0.620600  0.440100  1
  C  C39  1  0.488250  -0.131400  0.278540  1
  C  C40  1  0.344000  -0.620600  0.559900  1
  C  C41  1  0.427600  -0.093900  0.107040  1
  C  C42  1  0.579190  -0.326700  0.175460  1
  C  C43  1  0.389270  -0.400700  0.191300  1
  C  C44  1  0.401460  0.060300  0.123030  1
  C  C45  1  0.417220  -0.140300  0.030180  1
  C  C46  1  0.657900  -0.254400  0.210500  1
  C  C47  1  0.584140  -0.463200  0.130630  1
  C  C48  1  0.408190  -0.524800  0.245580  1
  C  C49  1  0.305320  -0.396900  0.145600  1
  C  C50  1  0.366040  0.165700  0.063970  1
  C  C51  1  0.381150  -0.036400  -0.028750  1
  C  C52  1  0.738620  -0.313900  0.200650  1
  C  C53  1  0.664570  -0.521100  0.119640  1
  C  C54  1  0.345910  -0.638300  0.253860  1
  C  C55  1  0.242740  -0.509500  0.153720  1
  C  C56  1  0.355340  0.115900  -0.011300  1
  C  C57  1  0.741810  -0.446300  0.154090  1
  C  C58  1  0.262480  -0.631300  0.208240  1
  C  C59  1  0.988250  -0.368600  0.778540  1
  C  C60  1  0.927600  -0.406100  0.607040  1
  C  C61  1  1.079190  -0.173300  0.675460  1
  C  C62  1  0.889270  -0.099300  0.691300  1
  C  C63  1  0.993490  -0.417500  0.843230  1
  C  C64  1  0.901460  -0.560300  0.623030  1
  C  C65  1  0.917220  -0.359700  0.530180  1
  C  C66  1  1.157900  -0.245600  0.710500  1
  C  C67  1  1.084140  -0.036800  0.630630  1
  C  C68  1  0.908190  0.024800  0.745580  1
  C  C69  1  0.805320  -0.103100  0.645600  1
  C  C70  1  0.996710  -0.461300  0.921770  1
  C  C71  1  0.866040  -0.665700  0.563970  1
  C  C72  1  0.881150  -0.463600  0.471250  1
  C  C73  1  1.238620  -0.186100  0.700650  1
  C  C74  1  1.164570  0.021100  0.619640  1
  C  C75  1  0.845910  0.138300  0.753860  1
  C  C76  1  0.742740  0.009500  0.653720  1
  C  C77  1  0.964730  -0.349500  0.970150  1
  C  C78  1  1.031770  -0.611700  0.950210  1
  C  C79  1  0.855340  -0.615900  0.488700  1
  C  C80  1  1.241810  -0.053700  0.654090  1
  C  C81  1  0.762480  0.131300  0.708240  1
  C  C82  1  0.928170  -0.199600  0.941170  1
  C  C83  1  0.968230  -0.388300  1.049790  1
  C  C84  1  1.035270  -0.650500  1.029850  1
  C  C85  1  1.062040  -0.725700  0.901490  1
  C  C86  1  0.898100  -0.094000  0.989240  1
  C  C87  1  1.003290  -0.538700  1.078230  1
  C  C88  1  0.937960  -0.274300  1.098510  1
  C  C89  1  1.071830  -0.800400  1.058830  1
  C  C90  1  1.096600  -0.869300  0.931190  1
  C  C91  1  0.903400  -0.130700  1.068810  1
  C  C92  1  1.006510  -0.582500  1.156770  1
  C  C93  1  1.101900  -0.906000  1.010760  1
  C  C94  1  1.128000  -0.996500  0.891100  1
  C  C95  1  0.872000  -0.003500  1.108900  1
  C  C96  1  0.844000  0.120600  1.059900  1
  C  C97  1  1.011750  -0.631400  1.221460  1
  C  C98  1  1.156000  -1.120600  0.940100  1
  C  C99  1  1.072400  -0.593900  1.392960  1
  C  C100  1  0.920810  -0.826700  1.324540  1
  C  C101  1  1.110730  -0.900700  1.308700  1
  C  C102  1  1.098540  -0.439700  1.376970  1
  C  C103  1  1.082780  -0.640300  1.469820  1
  C  C104  1  0.842100  -0.754400  1.289500  1
  C  C105  1  0.915860  -0.963200  1.369370  1
  C  C106  1  1.091810  -1.024800  1.254420  1
  C  C107  1  1.194680  -0.896900  1.354400  1
  C  C108  1  1.133960  -0.334300  1.436030  1
  C  C109  1  1.118850  -0.536400  1.528750  1
  C  C110  1  0.761380  -0.813900  1.299350  1
  C  C111  1  0.835430  -1.021100  1.380360  1
  C  C112  1  1.154090  -1.138300  1.246140  1
  C  C113  1  1.257260  -1.009500  1.346280  1
  C  C114  1  1.144660  -0.384100  1.511300  1
  C  C115  1  0.758190  -0.946300  1.345910  1
  C  C116  1  1.237520  -1.131300  1.291760  1
  F  F117  1  0.691100  0.759900  0.423910  1
  F  F118  1  0.308900  -0.759900  0.576090  1
  F  F119  1  0.808900  0.259900  1.076090  1
  F  F120  1  1.191100  -1.259900  0.923910  1
  H  H121  1  0.592300  -0.093700  0.826100  1
  H  H122  1  0.565200  0.242700  0.981800  1
  H  H123  1  0.343700  0.164100  0.758800  1
  H  H124  1  0.467200  0.516000  0.892100  1
  H  H125  1  0.536200  0.530600  0.723400  1
  H  H126  1  0.708700  0.316300  0.891200  1
  H  H127  1  0.650300  -0.269300  0.924600  1
  H  H128  1  0.625600  0.069100  1.079800  1
  H  H129  1  0.209600  0.264800  0.774700  1
  H  H130  1  0.333400  0.611000  0.911200  1
  H  H131  1  0.640200  0.719900  0.709900  1
  H  H132  1  0.812900  0.504200  0.877300  1
  H  H133  1  0.669500  -0.185300  1.050700  1
  H  H134  1  0.204400  0.484900  0.854000  1
  H  H135  1  0.779800  0.707300  0.786000  1
  H  H136  1  0.575200  0.326400  0.610400  1
  H  H137  1  0.441600  -0.203000  0.650500  1
  H  H138  1  0.558400  0.203000  0.349500  1
  H  H139  1  0.424800  -0.326400  0.389600  1
  H  H140  1  0.370500  -0.495800  0.661200  1
  H  H141  1  0.629500  0.495800  0.338800  1
  H  H142  1  0.407700  0.093700  0.173900  1
  H  H143  1  0.434800  -0.242700  0.018200  1
  H  H144  1  0.656300  -0.164100  0.241200  1
  H  H145  1  0.532800  -0.516000  0.107900  1
  H  H146  1  0.463800  -0.530600  0.276600  1
  H  H147  1  0.291300  -0.316300  0.108800  1
  H  H148  1  0.349700  0.269300  0.075400  1
  H  H149  1  0.374400  -0.069100  -0.079800  1
  H  H150  1  0.790400  -0.264800  0.225300  1
  H  H151  1  0.666600  -0.611000  0.088800  1
  H  H152  1  0.359800  -0.719900  0.290100  1
  H  H153  1  0.187100  -0.504200  0.122700  1
  H  H154  1  0.330500  0.185300  -0.050700  1
  H  H155  1  0.795600  -0.484900  0.146000  1
  H  H156  1  0.220200  -0.707300  0.214000  1
  H  H157  1  0.907700  -0.593700  0.673900  1
  H  H158  1  0.934800  -0.257300  0.518200  1
  H  H159  1  1.156300  -0.335900  0.741200  1
  H  H160  1  1.032800  0.016000  0.607900  1
  H  H161  1  0.963800  0.030600  0.776600  1
  H  H162  1  0.791300  -0.183700  0.608800  1
  H  H163  1  0.849700  -0.769300  0.575400  1
  H  H164  1  0.874400  -0.430900  0.420200  1
  H  H165  1  1.290400  -0.235200  0.725300  1
  H  H166  1  1.166600  0.111000  0.588800  1
  H  H167  1  0.859800  0.219900  0.790100  1
  H  H168  1  0.687100  0.004200  0.622700  1
  H  H169  1  0.830500  -0.685300  0.449300  1
  H  H170  1  1.295600  -0.015100  0.646000  1
  H  H171  1  0.720200  0.207300  0.714000  1
  H  H172  1  0.924800  -0.173600  0.889600  1
  H  H173  1  1.058400  -0.703000  0.849500  1
  H  H174  1  0.941600  -0.297000  1.150500  1
  H  H175  1  1.075200  -0.826400  1.110400  1
  H  H176  1  1.129500  -0.995800  0.838800  1
  H  H177  1  0.870500  -0.004200  1.161200  1
  H  H178  1  1.092300  -0.406300  1.326100  1
  H  H179  1  1.065200  -0.742700  1.481800  1
  H  H180  1  0.843700  -0.664100  1.258800  1
  H  H181  1  0.967200  -1.016000  1.392100  1
  H  H182  1  1.036200  -1.030600  1.223400  1
  H  H183  1  1.208700  -0.816300  1.391200  1
  H  H184  1  1.150300  -0.230700  1.424600  1
  H  H185  1  1.125600  -0.569100  1.579800  1
  H  H186  1  0.709600  -0.764800  1.274700  1
  H  H187  1  0.833400  -1.111000  1.411200  1
  H  H188  1  1.140200  -1.219900  1.209900  1
  H  H189  1  1.312900  -1.004200  1.377300  1
  H  H190  1  1.169500  -0.314700  1.550700  1
  H  H191  1  0.704400  -0.984900  1.354000  1
  H  H192  1  1.279800  -1.207300  1.286000  1
  S  S193  1  0.647420  0.591800  0.535980  1
  S  S194  1  0.352580  -0.591800  0.464020  1
  S  S195  1  0.852580  0.091800  0.964020  1
  S  S196  1  1.147420  -1.091800  1.035980  1
  Si  Si197  1  0.528490  0.237780  0.814180  1.0
  Si  Si198  1  0.471510  -0.237780  0.185820  1
  Si  Si199  1  0.971510  -0.262220  0.685820  1.0
  Si  Si200  1  1.028490  -0.737780  1.314180  1
