# generated using pymatgen
data_SiH38C33F2
_symmetry_space_group_name_H-M   'P 1'
_cell_length_a   17.32040000
_cell_length_b   9.19900000
_cell_length_c   34.23300000
_cell_angle_alpha   90.00000000
_cell_angle_beta   91.25900000
_cell_angle_gamma   90.00000000
_symmetry_Int_Tables_number   1
_chemical_formula_structural   SiH38C33F2
_chemical_formula_sum   'Si8 H304 C264 F16'
_cell_volume   5453.03945354
_cell_formula_units_Z   8
loop_
 _symmetry_equiv_pos_site_id
 _symmetry_equiv_pos_as_xyz
  1  'x, y, z'
loop_
 _atom_site_type_symbol
 _atom_site_label
 _atom_site_symmetry_multiplicity
 _atom_site_fract_x
 _atom_site_fract_y
 _atom_site_fract_z
 _atom_site_occupancy
  C  C1  1  0.242800  0.717900  0.092970  1
  C  C2  1  0.325200  0.493800  0.143190  1
  C  C3  1  0.147500  0.500000  0.136090  1
  C  C4  1  0.236300  0.757900  0.178510  1
  C  C5  1  0.246800  0.790800  0.063560  1
  C  C6  1  0.397700  0.553800  0.124100  1
  C  C7  1  0.345100  0.446100  0.185050  1
  C  C8  1  0.126800  0.424700  0.174170  1
  C  C9  1  0.074700  0.574500  0.118900  1
  C  C10  1  0.166000  0.859600  0.174900  1
  C  C11  1  0.311900  0.849900  0.179760  1
  C  C12  1  0.253100  0.880400  0.029790  1
  C  C13  1  0.465500  0.446700  0.125900  1
  C  C14  1  0.411400  0.336300  0.186200  1
  C  C15  1  0.059900  0.318700  0.168500  1
  C  C16  1  0.007800  0.467800  0.113100  1
  C  C17  1  0.167400  0.980400  0.205700  1
  C  C18  1  0.310500  0.969800  0.211100  1
  C  C19  1  0.192400  0.976800  0.019530  1
  C  C20  1  0.321900  0.875600  0.008010  1
  C  C21  1  0.483000  0.399300  0.168100  1
  C  C22  1  -0.010100  0.390300  0.151200  1
  C  C23  1  0.241100  1.067900  0.205400  1
  C  C24  1  0.126000  0.988200  0.042130  1
  C  C25  1  0.199900  1.070600  -0.014530  1
  C  C26  1  0.329800  0.970900  -0.025250  1
  C  C27  1  0.383000  0.783300  0.018500  1
  C  C28  1  0.066600  1.084800  0.033000  1
  C  C29  1  0.139600  1.169100  -0.023090  1
  C  C30  1  0.266600  1.062000  -0.036780  1
  C  C31  1  0.399400  0.971000  -0.045490  1
  C  C32  1  0.452100  0.781300  -0.001670  1
  C  C33  1  -0.000500  1.095000  0.055400  1
  C  C34  1  0.074900  1.179100  -0.000560  1
  C  C35  1  0.270500  1.143300  -0.072190  1
  C  C36  1  0.461100  0.879100  -0.034270  1
  C  C37  1  0.513600  0.690000  0.008300  1
  C  C38  1  -0.058000  1.187100  0.046300  1
  C  C39  1  0.011000  1.277900  -0.007400  1
  C  C40  1  0.271200  1.202500  -0.103940  1
  C  C41  1  0.531500  0.885000  -0.053600  1
  C  C42  1  0.582400  0.692000  -0.010700  1
  C  C43  1  -0.050900  1.283900  0.014300  1
  C  C44  1  0.593400  0.797600  -0.042000  1
  C  C45  1  0.646100  0.597000  -0.000700  1
  C  C46  1  0.338400  1.187000  -0.183980  1
  C  C47  1  0.289600  1.482400  -0.146740  1
  C  C48  1  0.162700  1.248300  -0.171960  1
  C  C49  1  0.665900  0.800000  -0.061600  1
  C  C50  1  0.712000  0.602300  -0.019700  1
  C  C51  1  0.412700  1.150500  -0.161610  1
  C  C52  1  0.357000  1.271900  -0.221230  1
  C  C53  1  0.258400  1.583700  -0.179900  1
  C  C54  1  0.267600  1.541500  -0.106900  1
  C  C55  1  0.134700  1.094600  -0.161100  1
  C  C56  1  0.152700  1.270400  -0.216090  1
  C  C57  1  0.722500  0.705200  -0.050200  1
  C  C58  1  0.469700  1.067700  -0.186700  1
  C  C59  1  0.413000  1.185300  -0.246730  1
  C  C60  1  0.284200  1.740300  -0.173400  1
  C  C61  1  0.293600  1.697100  -0.101000  1
  C  C62  1  0.053500  1.066400  -0.176200  1
  C  C63  1  0.069800  1.244400  -0.230300  1
  C  C64  1  0.486400  1.150200  -0.224100  1
  C  C65  1  0.263700  1.795800  -0.133300  1
  C  C66  1  0.044000  1.092400  -0.219200  1
  C  C67  1  0.257200  0.217900  -0.592970  1
  C  C68  1  0.174800  -0.006200  -0.643190  1
  C  C69  1  0.352500  0.000000  -0.636090  1
  C  C70  1  0.263700  0.257900  -0.678510  1
  C  C71  1  0.253200  0.290800  -0.563560  1
  C  C72  1  0.102300  0.053800  -0.624100  1
  C  C73  1  0.154900  -0.053900  -0.685050  1
  C  C74  1  0.373200  -0.075300  -0.674170  1
  C  C75  1  0.425300  0.074500  -0.618900  1
  C  C76  1  0.334000  0.359600  -0.674900  1
  C  C77  1  0.188100  0.349900  -0.679760  1
  C  C78  1  0.246900  0.380400  -0.529790  1
  C  C79  1  0.034500  -0.053300  -0.625900  1
  C  C80  1  0.088600  -0.163700  -0.686200  1
  C  C81  1  0.440100  -0.181300  -0.668500  1
  C  C82  1  0.492200  -0.032200  -0.613100  1
  C  C83  1  0.332600  0.480400  -0.705700  1
  C  C84  1  0.189500  0.469800  -0.711100  1
  C  C85  1  0.307600  0.476800  -0.519530  1
  C  C86  1  0.178100  0.375600  -0.508010  1
  C  C87  1  0.017000  -0.100700  -0.668100  1
  C  C88  1  0.510100  -0.109700  -0.651200  1
  C  C89  1  0.258900  0.567900  -0.705400  1
  C  C90  1  0.374000  0.488200  -0.542130  1
  C  C91  1  0.300100  0.570600  -0.485470  1
  C  C92  1  0.170200  0.470900  -0.474750  1
  C  C93  1  0.117000  0.283300  -0.518500  1
  C  C94  1  0.433400  0.584800  -0.533000  1
  C  C95  1  0.360400  0.669100  -0.476910  1
  C  C96  1  0.233400  0.562000  -0.463220  1
  C  C97  1  0.100600  0.471000  -0.454510  1
  C  C98  1  0.047900  0.281300  -0.498330  1
  C  C99  1  0.500500  0.595000  -0.555400  1
  C  C100  1  0.425100  0.679100  -0.499440  1
  C  C101  1  0.229500  0.643300  -0.427810  1
  C  C102  1  0.038900  0.379100  -0.465730  1
  C  C103  1  -0.013600  0.190000  -0.508300  1
  C  C104  1  0.558000  0.687100  -0.546300  1
  C  C105  1  0.489000  0.777900  -0.492600  1
  C  C106  1  0.228800  0.702500  -0.396060  1
  C  C107  1  -0.031500  0.385000  -0.446400  1
  C  C108  1  -0.082400  0.192000  -0.489300  1
  C  C109  1  0.550900  0.783900  -0.514300  1
  C  C110  1  -0.093400  0.297600  -0.458000  1
  C  C111  1  -0.146100  0.097000  -0.499300  1
  C  C112  1  0.161600  0.687000  -0.316020  1
  C  C113  1  0.210400  0.982400  -0.353260  1
  C  C114  1  0.337300  0.748300  -0.328040  1
  C  C115  1  -0.165900  0.300000  -0.438400  1
  C  C116  1  -0.212000  0.102300  -0.480300  1
  C  C117  1  0.087300  0.650500  -0.338390  1
  C  C118  1  0.143000  0.771900  -0.278770  1
  C  C119  1  0.241600  1.083700  -0.320100  1
  C  C120  1  0.232400  1.041500  -0.393100  1
  C  C121  1  0.365300  0.594600  -0.338900  1
  C  C122  1  0.347300  0.770400  -0.283910  1
  C  C123  1  -0.222500  0.205200  -0.449800  1
  C  C124  1  0.030300  0.567700  -0.313300  1
  C  C125  1  0.087000  0.685300  -0.253270  1
  C  C126  1  0.215800  1.240300  -0.326600  1
  C  C127  1  0.206400  1.197100  -0.399000  1
  C  C128  1  0.446500  0.566400  -0.323800  1
  C  C129  1  0.430200  0.744400  -0.269700  1
  C  C130  1  0.013600  0.650200  -0.275900  1
  C  C131  1  0.236300  1.295800  -0.366700  1
  C  C132  1  0.456000  0.592400  -0.280800  1
  C  C133  1  0.757200  1.282100  -0.092970  1
  C  C134  1  0.674800  1.506200  -0.143190  1
  C  C135  1  0.852500  1.500000  -0.136090  1
  C  C136  1  0.763700  1.242100  -0.178510  1
  C  C137  1  0.753200  1.209200  -0.063560  1
  C  C138  1  0.602300  1.446200  -0.124100  1
  C  C139  1  0.654900  1.553900  -0.185050  1
  C  C140  1  0.873200  1.575300  -0.174170  1
  C  C141  1  0.925300  1.425500  -0.118900  1
  C  C142  1  0.834000  1.140400  -0.174900  1
  C  C143  1  0.688100  1.150100  -0.179760  1
  C  C144  1  0.746900  1.119600  -0.029790  1
  C  C145  1  0.534500  1.553300  -0.125900  1
  C  C146  1  0.588600  1.663700  -0.186200  1
  C  C147  1  0.940100  1.681300  -0.168500  1
  C  C148  1  0.992200  1.532200  -0.113100  1
  C  C149  1  0.832600  1.019600  -0.205700  1
  C  C150  1  0.689500  1.030200  -0.211100  1
  C  C151  1  0.807600  1.023200  -0.019530  1
  C  C152  1  0.678100  1.124400  -0.008010  1
  C  C153  1  0.517000  1.600700  -0.168100  1
  C  C154  1  1.010100  1.609700  -0.151200  1
  C  C155  1  0.758900  0.932100  -0.205400  1
  C  C156  1  0.874000  1.011800  -0.042130  1
  C  C157  1  0.800100  0.929400  0.014530  1
  C  C158  1  0.670200  1.029100  0.025250  1
  C  C159  1  0.617000  1.216700  -0.018500  1
  C  C160  1  0.933400  0.915200  -0.033000  1
  C  C161  1  0.860400  0.830900  0.023090  1
  C  C162  1  0.733400  0.938000  0.036780  1
  C  C163  1  0.600600  1.029000  0.045490  1
  C  C164  1  0.547900  1.218700  0.001670  1
  C  C165  1  1.000500  0.905000  -0.055400  1
  C  C166  1  0.925100  0.820900  0.000560  1
  C  C167  1  0.729500  0.856700  0.072190  1
  C  C168  1  0.538900  1.120900  0.034270  1
  C  C169  1  0.486400  1.310000  -0.008300  1
  C  C170  1  1.058000  0.812900  -0.046300  1
  C  C171  1  0.989000  0.722100  0.007400  1
  C  C172  1  0.728800  0.797500  0.103940  1
  C  C173  1  0.468500  1.115000  0.053600  1
  C  C174  1  0.417600  1.308000  0.010700  1
  C  C175  1  1.050900  0.716100  -0.014300  1
  C  C176  1  0.406600  1.202400  0.042000  1
  C  C177  1  0.353900  1.403000  0.000700  1
  C  C178  1  0.661600  0.813000  0.183980  1
  C  C179  1  0.710400  0.517600  0.146740  1
  C  C180  1  0.837300  0.751700  0.171960  1
  C  C181  1  0.334100  1.200000  0.061600  1
  C  C182  1  0.288000  1.397700  0.019700  1
  C  C183  1  0.587300  0.849500  0.161610  1
  C  C184  1  0.643000  0.728100  0.221230  1
  C  C185  1  0.741600  0.416300  0.179900  1
  C  C186  1  0.732400  0.458500  0.106900  1
  C  C187  1  0.865300  0.905400  0.161100  1
  C  C188  1  0.847300  0.729600  0.216090  1
  C  C189  1  0.277500  1.294800  0.050200  1
  C  C190  1  0.530300  0.932300  0.186700  1
  C  C191  1  0.587000  0.814700  0.246730  1
  C  C192  1  0.715800  0.259700  0.173400  1
  C  C193  1  0.706400  0.302900  0.101000  1
  C  C194  1  0.946500  0.933600  0.176200  1
  C  C195  1  0.930200  0.755600  0.230300  1
  C  C196  1  0.513600  0.849800  0.224100  1
  C  C197  1  0.736300  0.204200  0.133300  1
  C  C198  1  0.956000  0.907600  0.219200  1
  C  C199  1  -0.257200  0.782100  -0.407030  1
  C  C200  1  -0.174800  1.006200  -0.356810  1
  C  C201  1  -0.352500  1.000000  -0.363910  1
  C  C202  1  -0.263700  0.742100  -0.321490  1
  C  C203  1  -0.253200  0.709200  -0.436440  1
  C  C204  1  -0.102300  0.946200  -0.375900  1
  C  C205  1  -0.154900  1.053900  -0.314950  1
  C  C206  1  -0.373200  1.075300  -0.325830  1
  C  C207  1  -0.425300  0.925500  -0.381100  1
  C  C208  1  -0.334000  0.640400  -0.325100  1
  C  C209  1  -0.188100  0.650100  -0.320240  1
  C  C210  1  -0.246900  0.619600  -0.470210  1
  C  C211  1  -0.034500  1.053300  -0.374100  1
  C  C212  1  -0.088600  1.163700  -0.313800  1
  C  C213  1  -0.440100  1.181300  -0.331500  1
  C  C214  1  -0.492200  1.032200  -0.386900  1
  C  C215  1  -0.332600  0.519600  -0.294300  1
  C  C216  1  -0.189500  0.530200  -0.288900  1
  C  C217  1  -0.307600  0.523200  -0.480470  1
  C  C218  1  -0.178100  0.624400  -0.491990  1
  C  C219  1  -0.017000  1.100700  -0.331900  1
  C  C220  1  -0.510100  1.109700  -0.348800  1
  C  C221  1  -0.258900  0.432100  -0.294600  1
  C  C222  1  -0.374000  0.511800  -0.457870  1
  C  C223  1  -0.300100  0.429400  -0.514530  1
  C  C224  1  -0.170200  0.529100  -0.525250  1
  C  C225  1  -0.117000  0.716700  -0.481500  1
  C  C226  1  -0.433400  0.415200  -0.467000  1
  C  C227  1  -0.360400  0.330900  -0.523090  1
  C  C228  1  -0.233400  0.438000  -0.536780  1
  C  C229  1  -0.100600  0.529000  -0.545490  1
  C  C230  1  -0.047900  0.718700  -0.501670  1
  C  C231  1  -0.500500  0.405000  -0.444600  1
  C  C232  1  -0.425100  0.320900  -0.500560  1
  C  C233  1  -0.229500  0.356700  -0.572190  1
  C  C234  1  -0.038900  0.620900  -0.534270  1
  C  C235  1  0.013600  0.810000  -0.491700  1
  C  C236  1  -0.558000  0.312900  -0.453700  1
  C  C237  1  -0.489000  0.222100  -0.507400  1
  C  C238  1  -0.228800  0.297500  -0.603940  1
  C  C239  1  0.031500  0.615000  -0.553600  1
  C  C240  1  0.082400  0.808000  -0.510700  1
  C  C241  1  -0.550900  0.216100  -0.485700  1
  C  C242  1  0.093400  0.702400  -0.542000  1
  C  C243  1  0.146100  0.903000  -0.500700  1
  C  C244  1  -0.161600  0.313000  -0.683980  1
  C  C245  1  -0.210400  0.017600  -0.646740  1
  C  C246  1  -0.337300  0.251700  -0.671960  1
  C  C247  1  0.165900  0.700000  -0.561600  1
  C  C248  1  0.212000  0.897700  -0.519700  1
  C  C249  1  -0.087300  0.349500  -0.661610  1
  C  C250  1  -0.143000  0.228100  -0.721230  1
  C  C251  1  -0.241600  -0.083700  -0.679900  1
  C  C252  1  -0.232400  -0.041500  -0.606900  1
  C  C253  1  -0.365300  0.405400  -0.661100  1
  C  C254  1  -0.347300  0.229600  -0.716090  1
  C  C255  1  0.222500  0.794800  -0.550200  1
  C  C256  1  -0.030300  0.432300  -0.686700  1
  C  C257  1  -0.087000  0.314700  -0.746730  1
  C  C258  1  -0.215800  -0.240300  -0.673400  1
  C  C259  1  -0.206400  -0.197100  -0.601000  1
  C  C260  1  -0.446500  0.433600  -0.676200  1
  C  C261  1  -0.430200  0.255600  -0.730300  1
  C  C262  1  -0.013600  0.349800  -0.724100  1
  C  C263  1  -0.236300  -0.295800  -0.633300  1
  C  C264  1  -0.456000  0.407600  -0.719200  1
  F  F265  1  -0.009200  1.007200  0.087140  1
  F  F266  1  -0.122300  1.200500  0.068050  1
  F  F267  1  0.017600  1.367900  -0.038790  1
  F  F268  1  -0.110100  1.374700  0.006200  1
  F  F269  1  0.509200  0.507200  -0.587140  1
  F  F270  1  0.622300  0.700500  -0.568050  1
  F  F271  1  0.482400  0.867900  -0.461210  1
  F  F272  1  0.610100  0.874700  -0.506200  1
  F  F273  1  1.009200  0.992800  -0.087140  1
  F  F274  1  1.122300  0.799500  -0.068050  1
  F  F275  1  0.982400  0.632100  0.038790  1
  F  F276  1  1.110100  0.625300  -0.006200  1
  F  F277  1  -0.509200  0.492800  -0.412860  1
  F  F278  1  -0.622300  0.299500  -0.431950  1
  F  F279  1  -0.482400  0.132100  -0.538790  1
  F  F280  1  -0.610100  0.125300  -0.493800  1
  H  H281  1  0.311300  0.403100  0.128500  1
  H  H282  1  0.159700  0.419900  0.117500  1
  H  H283  1  0.232900  0.705900  0.204100  1
  H  H284  1  0.413300  0.645000  0.137500  1
  H  H285  1  0.385500  0.577400  0.096500  1
  H  H286  1  0.359800  0.532300  0.200800  1
  H  H287  1  0.299000  0.401800  0.196800  1
  H  H288  1  0.172600  0.371500  0.184500  1
  H  H289  1  0.112700  0.499000  0.193700  1
  H  H290  1  0.058800  0.653400  0.136700  1
  H  H291  1  0.087100  0.618900  0.093400  1
  H  H292  1  0.164700  0.904100  0.148600  1
  H  H293  1  0.118200  0.801700  0.177600  1
  H  H294  1  0.356400  0.784800  0.185200  1
  H  H295  1  0.319200  0.895000  0.153900  1
  H  H296  1  0.511800  0.493200  0.115000  1
  H  H297  1  0.452700  0.360200  0.109800  1
  H  H298  1  0.423200  0.308700  0.213600  1
  H  H299  1  0.395600  0.247500  0.171800  1
  H  H300  1  0.076000  0.238600  0.151200  1
  H  H301  1  0.046900  0.276100  0.194100  1
  H  H302  1  -0.038600  0.521000  0.103600  1
  H  H303  1  0.021400  0.395100  0.093100  1
  H  H304  1  0.123000  1.046200  0.200700  1
  H  H305  1  0.161400  0.936700  0.231800  1
  H  H306  1  0.309000  0.924600  0.237300  1
  H  H307  1  0.358300  1.028400  0.209700  1
  H  H308  1  0.524600  0.325600  0.168500  1
  H  H309  1  0.501100  0.484100  0.183600  1
  H  H310  1  -0.030400  0.461500  0.170100  1
  H  H311  1  -0.050500  0.316100  0.146200  1
  H  H312  1  0.240400  1.141200  0.226500  1
  H  H313  1  0.244800  1.120000  0.180200  1
  H  H314  1  0.121500  0.927800  0.064500  1
  H  H315  1  0.377300  0.719700  0.040100  1
  H  H316  1  0.143700  1.230800  -0.045200  1
  H  H317  1  0.405000  1.034200  -0.067200  1
  H  H318  1  0.507500  0.622800  0.029200  1
  H  H319  1  0.537100  0.950400  -0.074900  1
  H  H320  1  0.640800  0.529600  0.020000  1
  H  H321  1  0.314600  1.092800  -0.192400  1
  H  H322  1  0.347100  1.488800  -0.147600  1
  H  H323  1  0.128100  1.319500  -0.158900  1
  H  H324  1  0.674300  0.867100  -0.082200  1
  H  H325  1  0.752500  0.536800  -0.012900  1
  H  H326  1  0.400300  1.091000  -0.138500  1
  H  H327  1  0.437200  1.241700  -0.152200  1
  H  H328  1  0.380600  1.366500  -0.214000  1
  H  H329  1  0.308700  1.291300  -0.236300  1
  H  H330  1  0.277200  1.548900  -0.205300  1
  H  H331  1  0.201200  1.579600  -0.180800  1
  H  H332  1  0.210800  1.536200  -0.104400  1
  H  H333  1  0.291300  1.479800  -0.086200  1
  H  H334  1  0.170000  1.021500  -0.172100  1
  H  H335  1  0.136300  1.083900  -0.132300  1
  H  H336  1  0.168000  1.370900  -0.222800  1
  H  H337  1  0.187500  1.203000  -0.229800  1
  H  H338  1  0.770500  0.707700  -0.063100  1
  H  H339  1  0.518500  1.052900  -0.171600  1
  H  H340  1  0.448100  0.971000  -0.193300  1
  H  H341  1  0.388000  1.093900  -0.255500  1
  H  H342  1  0.425600  1.243000  -0.270200  1
  H  H343  1  0.340800  1.746600  -0.176500  1
  H  H344  1  0.259500  1.803000  -0.193600  1
  H  H345  1  0.350800  1.700600  -0.100000  1
  H  H346  1  0.274900  1.732800  -0.075600  1
  H  H347  1  0.039500  0.964400  -0.170500  1
  H  H348  1  0.017400  1.130200  -0.162200  1
  H  H349  1  0.035300  1.317100  -0.218400  1
  H  H350  1  0.066400  1.256000  -0.259000  1
  H  H351  1  0.513900  1.241500  -0.217600  1
  H  H352  1  0.520400  1.090600  -0.240600  1
  H  H353  1  0.285900  1.894200  -0.129500  1
  H  H354  1  0.206900  1.803800  -0.131700  1
  H  H355  1  -0.011000  1.079400  -0.227000  1
  H  H356  1  0.074700  1.020000  -0.233600  1
  H  H357  1  0.188700  -0.096900  -0.628500  1
  H  H358  1  0.340300  -0.080100  -0.617500  1
  H  H359  1  0.267100  0.205900  -0.704100  1
  H  H360  1  0.086700  0.145000  -0.637500  1
  H  H361  1  0.114500  0.077400  -0.596500  1
  H  H362  1  0.140200  0.032300  -0.700800  1
  H  H363  1  0.201000  -0.098200  -0.696800  1
  H  H364  1  0.327400  -0.128500  -0.684500  1
  H  H365  1  0.387300  -0.001000  -0.693700  1
  H  H366  1  0.441200  0.153400  -0.636700  1
  H  H367  1  0.412900  0.118900  -0.593400  1
  H  H368  1  0.335300  0.404100  -0.648600  1
  H  H369  1  0.381800  0.301700  -0.677600  1
  H  H370  1  0.143600  0.284800  -0.685200  1
  H  H371  1  0.180800  0.395000  -0.653900  1
  H  H372  1  -0.011800  -0.006800  -0.615000  1
  H  H373  1  0.047300  -0.139800  -0.609800  1
  H  H374  1  0.076800  -0.191300  -0.713600  1
  H  H375  1  0.104400  -0.252500  -0.671800  1
  H  H376  1  0.424000  -0.261400  -0.651200  1
  H  H377  1  0.453100  -0.223900  -0.694100  1
  H  H378  1  0.538600  0.021000  -0.603600  1
  H  H379  1  0.478600  -0.104900  -0.593100  1
  H  H380  1  0.377000  0.546200  -0.700700  1
  H  H381  1  0.338600  0.436700  -0.731800  1
  H  H382  1  0.191000  0.424600  -0.737300  1
  H  H383  1  0.141700  0.528400  -0.709700  1
  H  H384  1  -0.024600  -0.174400  -0.668500  1
  H  H385  1  -0.001100  -0.015900  -0.683600  1
  H  H386  1  0.530400  -0.038500  -0.670100  1
  H  H387  1  0.550500  -0.183900  -0.646200  1
  H  H388  1  0.259600  0.641200  -0.726500  1
  H  H389  1  0.255200  0.620000  -0.680200  1
  H  H390  1  0.378500  0.427800  -0.564500  1
  H  H391  1  0.122700  0.219700  -0.540100  1
  H  H392  1  0.356300  0.730800  -0.454800  1
  H  H393  1  0.095000  0.534200  -0.432800  1
  H  H394  1  -0.007500  0.122800  -0.529200  1
  H  H395  1  -0.037100  0.450400  -0.425100  1
  H  H396  1  -0.140800  0.029600  -0.520000  1
  H  H397  1  0.185400  0.592800  -0.307600  1
  H  H398  1  0.152900  0.988800  -0.352400  1
  H  H399  1  0.371900  0.819500  -0.341100  1
  H  H400  1  -0.174300  0.367100  -0.417800  1
  H  H401  1  -0.252500  0.036800  -0.487100  1
  H  H402  1  0.099700  0.591000  -0.361500  1
  H  H403  1  0.062800  0.741700  -0.347800  1
  H  H404  1  0.119400  0.866500  -0.286000  1
  H  H405  1  0.191300  0.791300  -0.263700  1
  H  H406  1  0.222800  1.048900  -0.294700  1
  H  H407  1  0.298800  1.079600  -0.319200  1
  H  H408  1  0.289200  1.036200  -0.395600  1
  H  H409  1  0.208700  0.979800  -0.413800  1
  H  H410  1  0.330000  0.521500  -0.327900  1
  H  H411  1  0.363700  0.583900  -0.367700  1
  H  H412  1  0.332000  0.870900  -0.277200  1
  H  H413  1  0.312500  0.703000  -0.270200  1
  H  H414  1  -0.270500  0.207700  -0.436900  1
  H  H415  1  -0.018500  0.552900  -0.328400  1
  H  H416  1  0.051900  0.471000  -0.306700  1
  H  H417  1  0.112000  0.593900  -0.244500  1
  H  H418  1  0.074400  0.743000  -0.229800  1
  H  H419  1  0.159200  1.246600  -0.323500  1
  H  H420  1  0.240500  1.303000  -0.306400  1
  H  H421  1  0.149200  1.200600  -0.400000  1
  H  H422  1  0.225100  1.232800  -0.424400  1
  H  H423  1  0.460500  0.464400  -0.329500  1
  H  H424  1  0.482600  0.630200  -0.337800  1
  H  H425  1  0.464700  0.817100  -0.281600  1
  H  H426  1  0.433600  0.756000  -0.241000  1
  H  H427  1  -0.013900  0.741500  -0.282400  1
  H  H428  1  -0.020400  0.590600  -0.259400  1
  H  H429  1  0.214100  1.394200  -0.370500  1
  H  H430  1  0.293100  1.303800  -0.368300  1
  H  H431  1  0.511000  0.579400  -0.273000  1
  H  H432  1  0.425300  0.520000  -0.266400  1
  H  H433  1  0.688700  1.596900  -0.128500  1
  H  H434  1  0.840300  1.580100  -0.117500  1
  H  H435  1  0.767100  1.294100  -0.204100  1
  H  H436  1  0.586700  1.355000  -0.137500  1
  H  H437  1  0.614500  1.422600  -0.096500  1
  H  H438  1  0.640200  1.467700  -0.200800  1
  H  H439  1  0.701000  1.598200  -0.196800  1
  H  H440  1  0.827400  1.628500  -0.184500  1
  H  H441  1  0.887300  1.501000  -0.193700  1
  H  H442  1  0.941200  1.346600  -0.136700  1
  H  H443  1  0.912900  1.381100  -0.093400  1
  H  H444  1  0.835300  1.095900  -0.148600  1
  H  H445  1  0.881800  1.198300  -0.177600  1
  H  H446  1  0.643600  1.215200  -0.185200  1
  H  H447  1  0.680800  1.105000  -0.153900  1
  H  H448  1  0.488200  1.506800  -0.115000  1
  H  H449  1  0.547300  1.639800  -0.109800  1
  H  H450  1  0.576800  1.691300  -0.213600  1
  H  H451  1  0.604400  1.752500  -0.171800  1
  H  H452  1  0.924000  1.761400  -0.151200  1
  H  H453  1  0.953100  1.723900  -0.194100  1
  H  H454  1  1.038600  1.479000  -0.103600  1
  H  H455  1  0.978600  1.604900  -0.093100  1
  H  H456  1  0.877000  0.953800  -0.200700  1
  H  H457  1  0.838600  1.063300  -0.231800  1
  H  H458  1  0.691000  1.075400  -0.237300  1
  H  H459  1  0.641700  0.971600  -0.209700  1
  H  H460  1  0.475400  1.674400  -0.168500  1
  H  H461  1  0.498900  1.515900  -0.183600  1
  H  H462  1  1.030400  1.538500  -0.170100  1
  H  H463  1  1.050500  1.683900  -0.146200  1
  H  H464  1  0.759600  0.858800  -0.226500  1
  H  H465  1  0.755200  0.880000  -0.180200  1
  H  H466  1  0.878500  1.072200  -0.064500  1
  H  H467  1  0.622700  1.280300  -0.040100  1
  H  H468  1  0.856300  0.769200  0.045200  1
  H  H469  1  0.595000  0.965800  0.067200  1
  H  H470  1  0.492500  1.377200  -0.029200  1
  H  H471  1  0.462900  1.049600  0.074900  1
  H  H472  1  0.359200  1.470400  -0.020000  1
  H  H473  1  0.685400  0.907200  0.192400  1
  H  H474  1  0.652900  0.511200  0.147600  1
  H  H475  1  0.871900  0.680500  0.158900  1
  H  H476  1  0.325700  1.132900  0.082200  1
  H  H477  1  0.247500  1.463200  0.012900  1
  H  H478  1  0.599700  0.909000  0.138500  1
  H  H479  1  0.562800  0.758300  0.152200  1
  H  H480  1  0.619400  0.633500  0.214000  1
  H  H481  1  0.691300  0.708700  0.236300  1
  H  H482  1  0.722800  0.451100  0.205300  1
  H  H483  1  0.798800  0.420400  0.180800  1
  H  H484  1  0.789200  0.463800  0.104400  1
  H  H485  1  0.708700  0.520200  0.086200  1
  H  H486  1  0.830000  0.978500  0.172100  1
  H  H487  1  0.863700  0.916100  0.132300  1
  H  H488  1  0.832000  0.629100  0.222800  1
  H  H489  1  0.812500  0.797000  0.229800  1
  H  H490  1  0.229500  1.292300  0.063100  1
  H  H491  1  0.481500  0.947100  0.171600  1
  H  H492  1  0.551900  1.029000  0.193300  1
  H  H493  1  0.612000  0.906100  0.255500  1
  H  H494  1  0.574400  0.757000  0.270200  1
  H  H495  1  0.659200  0.253400  0.176500  1
  H  H496  1  0.740500  0.197000  0.193600  1
  H  H497  1  0.649200  0.299400  0.100000  1
  H  H498  1  0.725100  0.267200  0.075600  1
  H  H499  1  0.960500  1.035600  0.170500  1
  H  H500  1  0.982600  0.869800  0.162200  1
  H  H501  1  0.964700  0.682900  0.218400  1
  H  H502  1  0.933600  0.744000  0.259000  1
  H  H503  1  0.486100  0.758500  0.217600  1
  H  H504  1  0.479600  0.909400  0.240600  1
  H  H505  1  0.714100  0.105800  0.129500  1
  H  H506  1  0.793100  0.196200  0.131700  1
  H  H507  1  1.011000  0.920600  0.227000  1
  H  H508  1  0.925300  0.980000  0.233600  1
  H  H509  1  -0.188700  1.096900  -0.371500  1
  H  H510  1  -0.340300  1.080100  -0.382500  1
  H  H511  1  -0.267100  0.794100  -0.295900  1
  H  H512  1  -0.086700  0.855000  -0.362500  1
  H  H513  1  -0.114500  0.922600  -0.403500  1
  H  H514  1  -0.140200  0.967700  -0.299200  1
  H  H515  1  -0.201000  1.098200  -0.303200  1
  H  H516  1  -0.327400  1.128500  -0.315500  1
  H  H517  1  -0.387300  1.001000  -0.306300  1
  H  H518  1  -0.441200  0.846600  -0.363300  1
  H  H519  1  -0.412900  0.881100  -0.406600  1
  H  H520  1  -0.335300  0.595900  -0.351400  1
  H  H521  1  -0.381800  0.698300  -0.322400  1
  H  H522  1  -0.143600  0.715200  -0.314800  1
  H  H523  1  -0.180800  0.605000  -0.346100  1
  H  H524  1  0.011800  1.006800  -0.385000  1
  H  H525  1  -0.047300  1.139800  -0.390200  1
  H  H526  1  -0.076800  1.191300  -0.286400  1
  H  H527  1  -0.104400  1.252500  -0.328200  1
  H  H528  1  -0.424000  1.261400  -0.348800  1
  H  H529  1  -0.453100  1.223900  -0.305900  1
  H  H530  1  -0.538600  0.979000  -0.396400  1
  H  H531  1  -0.478600  1.104900  -0.406900  1
  H  H532  1  -0.377000  0.453800  -0.299300  1
  H  H533  1  -0.338600  0.563300  -0.268200  1
  H  H534  1  -0.191000  0.575400  -0.262700  1
  H  H535  1  -0.141700  0.471600  -0.290300  1
  H  H536  1  0.024600  1.174400  -0.331500  1
  H  H537  1  0.001100  1.015900  -0.316400  1
  H  H538  1  -0.530400  1.038500  -0.329900  1
  H  H539  1  -0.550500  1.183900  -0.353800  1
  H  H540  1  -0.259600  0.358800  -0.273500  1
  H  H541  1  -0.255200  0.380000  -0.319800  1
  H  H542  1  -0.378500  0.572200  -0.435500  1
  H  H543  1  -0.122700  0.780300  -0.459900  1
  H  H544  1  -0.356300  0.269200  -0.545200  1
  H  H545  1  -0.095000  0.465800  -0.567200  1
  H  H546  1  0.007500  0.877200  -0.470800  1
  H  H547  1  0.037100  0.549600  -0.574900  1
  H  H548  1  0.140800  0.970400  -0.480000  1
  H  H549  1  -0.185400  0.407200  -0.692400  1
  H  H550  1  -0.152900  0.011200  -0.647600  1
  H  H551  1  -0.371900  0.180500  -0.658900  1
  H  H552  1  0.174300  0.632900  -0.582200  1
  H  H553  1  0.252500  0.963200  -0.512900  1
  H  H554  1  -0.099700  0.409000  -0.638500  1
  H  H555  1  -0.062800  0.258300  -0.652200  1
  H  H556  1  -0.119400  0.133500  -0.714000  1
  H  H557  1  -0.191300  0.208700  -0.736300  1
  H  H558  1  -0.222800  -0.048900  -0.705300  1
  H  H559  1  -0.298800  -0.079600  -0.680800  1
  H  H560  1  -0.289200  -0.036200  -0.604400  1
  H  H561  1  -0.208700  0.020200  -0.586200  1
  H  H562  1  -0.330000  0.478500  -0.672100  1
  H  H563  1  -0.363700  0.416100  -0.632300  1
  H  H564  1  -0.332000  0.129100  -0.722800  1
  H  H565  1  -0.312500  0.297000  -0.729800  1
  H  H566  1  0.270500  0.792300  -0.563100  1
  H  H567  1  0.018500  0.447100  -0.671600  1
  H  H568  1  -0.051900  0.529000  -0.693300  1
  H  H569  1  -0.112000  0.406100  -0.755500  1
  H  H570  1  -0.074400  0.257000  -0.770200  1
  H  H571  1  -0.159200  -0.246600  -0.676500  1
  H  H572  1  -0.240500  -0.303000  -0.693600  1
  H  H573  1  -0.149200  -0.200600  -0.600000  1
  H  H574  1  -0.225100  -0.232800  -0.575600  1
  H  H575  1  -0.460500  0.535600  -0.670500  1
  H  H576  1  -0.482600  0.369800  -0.662200  1
  H  H577  1  -0.464700  0.182900  -0.718400  1
  H  H578  1  -0.433600  0.244000  -0.759000  1
  H  H579  1  0.013900  0.258500  -0.717600  1
  H  H580  1  0.020400  0.409400  -0.740600  1
  H  H581  1  -0.214100  -0.394200  -0.629500  1
  H  H582  1  -0.293100  -0.303800  -0.631700  1
  H  H583  1  -0.511000  0.420600  -0.727000  1
  H  H584  1  -0.425300  0.480000  -0.733600  1
  Si  Si585  1  0.237500  0.616590  0.139100  1.0
  Si  Si586  1  0.265210  1.284080  -0.153090  1
  Si  Si587  1  0.262500  0.116590  -0.639100  1.0
  Si  Si588  1  0.234790  0.784080  -0.346910  1
  Si  Si589  1  0.762500  1.383410  -0.139100  1.0
  Si  Si590  1  0.734790  0.715920  0.153090  1
  Si  Si591  1  -0.262500  0.883410  -0.360900  1.0
  Si  Si592  1  -0.234790  0.215920  -0.653090  1
