# generated using pymatgen
data_Si2H60C51S2(NO)2
_symmetry_space_group_name_H-M   'P 1'
_cell_length_a   11.18430000
_cell_length_b   14.83670000
_cell_length_c   15.77320000
_cell_angle_alpha   63.05400000
_cell_angle_beta   77.06400000
_cell_angle_gamma   89.14000000
_symmetry_Int_Tables_number   1
_chemical_formula_structural   Si2H60C51S2(NO)2
_chemical_formula_sum   'Si4 H120 C102 S4 N4 O4'
_cell_volume   2262.72030621
_cell_formula_units_Z   2
loop_
 _symmetry_equiv_pos_site_id
 _symmetry_equiv_pos_as_xyz
  1  'x, y, z'
loop_
 _atom_site_type_symbol
 _atom_site_label
 _atom_site_symmetry_multiplicity
 _atom_site_fract_x
 _atom_site_fract_y
 _atom_site_fract_z
 _atom_site_occupancy
  C  C1  1  0.303900  0.147200  0.611600  1
  C  C2  1  0.335410  -0.072800  0.654960  1
  C  C3  1  0.096260  0.024800  0.612400  1
  C  C4  1  0.163870  -0.020560  0.805340  1
  C  C5  1  0.336750  0.237360  0.570420  1
  C  C6  1  0.355660  -0.067830  0.553810  1
  C  C7  1  0.016230  -0.075640  0.653390  1
  C  C8  1  0.084230  0.053730  0.827970  1
  C  C9  1  0.361450  0.345600  0.519240  1
  C  C10  1  0.267400  0.404740  0.536610  1
  C  C11  1  0.473990  0.392320  0.448150  1
  C  C12  1  0.156900  0.359230  0.610940  1
  C  C13  1  0.283580  0.513510  0.476790  1
  C  C14  1  0.489800  0.501090  0.389130  1
  C  C15  1  0.570070  0.333910  0.431990  1
  C  C16  1  0.068430  0.419370  0.624680  1
  C  C17  1  0.188900  0.572580  0.492080  1
  C  C18  1  0.393480  0.559780  0.402550  1
  C  C19  1  0.600200  0.547760  0.316280  1
  C  C20  1  0.674080  0.381750  0.358290  1
  C  C21  1  0.082920  0.527130  0.564830  1
  C  C22  1  0.403070  0.666330  0.338880  1
  C  C23  1  0.690390  0.489650  0.299540  1
  C  C24  1  -0.021600  0.574240  0.592260  1
  C  C25  1  -0.109610  0.506640  0.669650  1
  C  C26  1  0.401530  0.755500  0.285160  1
  C  C27  1  0.805890  0.523340  0.226530  1
  C  C28  1  0.873280  0.445320  0.229470  1
  C  C29  1  -0.232110  0.515940  0.724500  1
  C  C30  1  0.995590  0.438020  0.172670  1
  C  C31  1  0.360890  0.909390  0.087260  1
  C  C32  1  0.499790  0.975510  0.199860  1
  C  C33  1  0.221920  0.903230  0.284040  1
  C  C34  1  -0.396150  0.613580  0.756390  1
  C  C35  1  -0.202670  0.709720  0.643200  1
  C  C36  1  0.262870  0.840650  0.084460  1
  C  C37  1  0.472440  1.086640  0.162250  1
  C  C38  1  0.231410  0.892210  0.383710  1
  C  C39  1  1.027950  0.626920  0.052370  1
  C  C40  1  1.183160  0.512790  0.043280  1
  C  C41  1  -0.411460  0.726690  0.710210  1
  C  C42  1  -0.280100  0.776120  0.680350  1
  C  C43  1  1.128690  0.681830  -0.042080  1
  C  C44  1  1.239440  0.622950  -0.018430  1
  C  C45  1  0.696100  0.852800  0.388400  1
  C  C46  1  0.664590  1.072800  0.345040  1
  C  C47  1  0.903740  0.975200  0.387600  1
  C  C48  1  0.836130  1.020560  0.194660  1
  C  C49  1  0.663250  0.762640  0.429580  1
  C  C50  1  0.644340  1.067830  0.446190  1
  C  C51  1  0.983770  1.075640  0.346610  1
  C  C52  1  0.915770  0.946270  0.172030  1
  C  C53  1  0.638550  0.654400  0.480760  1
  C  C54  1  0.732600  0.595260  0.463390  1
  C  C55  1  0.526010  0.607680  0.551850  1
  C  C56  1  0.843100  0.640770  0.389060  1
  C  C57  1  0.716420  0.486490  0.523210  1
  C  C58  1  0.510200  0.498910  0.610870  1
  C  C59  1  0.429930  0.666090  0.568010  1
  C  C60  1  0.931570  0.580630  0.375320  1
  C  C61  1  0.811100  0.427420  0.507920  1
  C  C62  1  0.606520  0.440220  0.597450  1
  C  C63  1  0.399800  0.452240  0.683720  1
  C  C64  1  0.325920  0.618250  0.641710  1
  C  C65  1  0.917080  0.472870  0.435170  1
  C  C66  1  0.596930  0.333670  0.661120  1
  C  C67  1  0.309610  0.510350  0.700460  1
  C  C68  1  1.021600  0.425760  0.407740  1
  C  C69  1  1.109610  0.493360  0.330350  1
  C  C70  1  0.598470  0.244500  0.714840  1
  C  C71  1  0.194110  0.476660  0.773470  1
  C  C72  1  0.126720  0.554680  0.770530  1
  C  C73  1  1.232110  0.484060  0.275500  1
  C  C74  1  0.004410  0.561980  0.827330  1
  C  C75  1  0.639110  0.090610  0.912740  1
  C  C76  1  0.500210  0.024490  0.800140  1
  C  C77  1  0.778080  0.096770  0.715960  1
  C  C78  1  1.396150  0.386420  0.243610  1
  C  C79  1  1.202670  0.290280  0.356800  1
  C  C80  1  0.737130  0.159350  0.915540  1
  C  C81  1  0.527560  -0.086640  0.837750  1
  C  C82  1  0.768590  0.107790  0.616290  1
  C  C83  1  -0.027950  0.373080  0.947630  1
  C  C84  1  -0.183160  0.487210  0.956720  1
  C  C85  1  1.411460  0.273310  0.289790  1
  C  C86  1  1.280100  0.223880  0.319650  1
  C  C87  1  -0.128690  0.318170  1.042080  1
  C  C88  1  -0.239440  0.377050  1.018430  1
  C  C89  1  0.609930  0.732540  0.084400  1
  C  C90  1  0.644010  0.698300  0.014790  1
  C  C91  1  0.687010  0.801800  0.088030  1
  C  C92  1  0.757570  0.736770  -0.053190  1
  C  C93  1  0.559120  0.622370  0.012440  1
  C  C94  1  0.799610  0.840150  0.019940  1
  C  C95  1  0.834140  0.807650  -0.050740  1
  C  C96  1  0.390070  0.267460  0.915600  1
  C  C97  1  0.355990  0.301700  0.985210  1
  C  C98  1  0.312990  0.198200  0.911970  1
  C  C99  1  0.242430  0.263230  1.053190  1
  C  C100  1  0.440880  0.377630  0.987560  1
  C  C101  1  0.200390  0.159850  0.980060  1
  C  C102  1  0.165860  0.192350  1.050740  1
  H  H103  1  0.415700  -0.057200  0.664400  1
  H  H104  1  0.303000  -0.142900  0.705700  1
  H  H105  1  0.042900  0.075900  0.619700  1
  H  H106  1  0.131400  0.049100  0.541400  1
  H  H107  1  0.114500  -0.087300  0.836500  1
  H  H108  1  0.234200  -0.029700  0.836000  1
  H  H109  1  0.279400  -0.093700  0.547900  1
  H  H110  1  0.421800  -0.109400  0.545500  1
  H  H111  1  0.378700  0.002800  0.503100  1
  H  H112  1  0.068600  -0.128100  0.650100  1
  H  H113  1  -0.044300  -0.066600  0.614500  1
  H  H114  1  -0.026800  -0.096500  0.721800  1
  H  H115  1  0.134300  0.118100  0.803700  1
  H  H116  1  0.051200  0.025000  0.899000  1
  H  H117  1  0.016000  0.065900  0.795800  1
  H  H118  1  0.144500  0.287700  0.650800  1
  H  H119  1  0.562300  0.262400  0.471900  1
  H  H120  1  0.198500  0.644100  0.451900  1
  H  H121  1  0.612200  0.619600  0.278700  1
  H  H122  1  -0.028400  0.645200  0.559700  1
  H  H123  1  0.832200  0.592600  0.181200  1
  H  H124  1  0.344600  0.980800  0.050000  1
  H  H125  1  0.442200  0.900700  0.052700  1
  H  H126  1  0.518200  0.951600  0.264800  1
  H  H127  1  0.574500  0.971600  0.154600  1
  H  H128  1  0.196200  0.971100  0.245700  1
  H  H129  1  0.157600  0.851600  0.294600  1
  H  H130  1  -0.401800  0.585900  0.827400  1
  H  H131  1  -0.459600  0.575500  0.747000  1
  H  H132  1  -0.196700  0.733400  0.572600  1
  H  H133  1  -0.118600  0.709300  0.653700  1
  H  H134  1  0.279700  0.769600  0.118400  1
  H  H135  1  0.264800  0.858900  0.016100  1
  H  H136  1  0.181300  0.849400  0.117100  1
  H  H137  1  0.451400  1.110500  0.098900  1
  H  H138  1  0.545400  1.128200  0.154200  1
  H  H139  1  0.403100  1.092300  0.209500  1
  H  H140  1  0.259500  0.826000  0.421100  1
  H  H141  1  0.150300  0.897200  0.420100  1
  H  H142  1  0.290500  0.946400  0.373600  1
  H  H143  1  1.027900  0.657100  0.097000  1
  H  H144  1  0.945700  0.629800  0.038300  1
  H  H145  1  1.176500  0.480700  0.001300  1
  H  H146  1  1.232800  0.472500  0.089900  1
  H  H147  1  -0.465600  0.744700  0.758000  1
  H  H148  1  -0.446400  0.747500  0.652400  1
  H  H149  1  -0.255600  0.775600  0.737100  1
  H  H150  1  -0.271700  0.847100  0.628000  1
  H  H151  1  1.105000  0.679100  -0.097800  1
  H  H152  1  1.146100  0.753800  -0.058100  1
  H  H153  1  1.281400  0.644900  0.019100  1
  H  H154  1  1.299400  0.632100  -0.079000  1
  H  H155  1  0.584300  1.057200  0.335600  1
  H  H156  1  0.697000  1.142900  0.294300  1
  H  H157  1  0.957100  0.924100  0.380300  1
  H  H158  1  0.868600  0.950900  0.458600  1
  H  H159  1  0.885500  1.087300  0.163500  1
  H  H160  1  0.765800  1.029700  0.164000  1
  H  H161  1  0.720600  1.093700  0.452100  1
  H  H162  1  0.578200  1.109400  0.454500  1
  H  H163  1  0.621300  0.997200  0.496900  1
  H  H164  1  0.931400  1.128100  0.349900  1
  H  H165  1  1.044300  1.066600  0.385500  1
  H  H166  1  1.026800  1.096500  0.278200  1
  H  H167  1  0.865700  0.881900  0.196300  1
  H  H168  1  0.948800  0.975000  0.101000  1
  H  H169  1  0.984000  0.934100  0.204200  1
  H  H170  1  0.855500  0.712300  0.349200  1
  H  H171  1  0.437700  0.737600  0.528100  1
  H  H172  1  0.801500  0.355900  0.548100  1
  H  H173  1  0.387800  0.380400  0.721300  1
  H  H174  1  1.028400  0.354800  0.440300  1
  H  H175  1  0.167800  0.407400  0.818800  1
  H  H176  1  0.655400  0.019200  0.950000  1
  H  H177  1  0.557800  0.099300  0.947300  1
  H  H178  1  0.481800  0.048400  0.735200  1
  H  H179  1  0.425500  0.028400  0.845400  1
  H  H180  1  0.803800  0.028900  0.754300  1
  H  H181  1  0.842400  0.148400  0.705400  1
  H  H182  1  1.401800  0.414100  0.172600  1
  H  H183  1  1.459600  0.424500  0.253000  1
  H  H184  1  1.196700  0.266600  0.427400  1
  H  H185  1  1.118600  0.290700  0.346300  1
  H  H186  1  0.720300  0.230400  0.881600  1
  H  H187  1  0.735200  0.141100  0.983900  1
  H  H188  1  0.818700  0.150600  0.882900  1
  H  H189  1  0.548600  -0.110500  0.901100  1
  H  H190  1  0.454600  -0.128200  0.845800  1
  H  H191  1  0.596900  -0.092300  0.790500  1
  H  H192  1  0.740500  0.174000  0.578900  1
  H  H193  1  0.849700  0.102800  0.579900  1
  H  H194  1  0.709500  0.053600  0.626400  1
  H  H195  1  -0.027900  0.342900  0.903000  1
  H  H196  1  0.054300  0.370200  0.961700  1
  H  H197  1  -0.176500  0.519300  0.998700  1
  H  H198  1  -0.232800  0.527500  0.910100  1
  H  H199  1  1.465600  0.255300  0.242000  1
  H  H200  1  1.446400  0.252500  0.347600  1
  H  H201  1  1.255600  0.224400  0.262900  1
  H  H202  1  1.271700  0.152900  0.372000  1
  H  H203  1  -0.105000  0.320900  1.097800  1
  H  H204  1  -0.146100  0.246200  1.058100  1
  H  H205  1  -0.281400  0.355100  0.980900  1
  H  H206  1  -0.299400  0.367900  1.079000  1
  H  H207  1  0.532200  0.707900  0.130400  1.0
  H  H208  1  0.662900  0.823200  0.137200  1
  H  H209  1  0.782500  0.714200  -0.101500  1
  H  H210  1  0.481700  0.608300  0.062100  1
  H  H211  1  0.598200  0.559300  0.026300  1
  H  H212  1  0.542100  0.650000  -0.052600  1
  H  H213  1  0.852500  0.888300  0.021900  1
  H  H214  1  0.910800  0.834100  -0.097900  1
  H  H215  1  0.467800  0.292100  0.869600  1.0
  H  H216  1  0.337100  0.176800  0.862800  1
  H  H217  1  0.217500  0.285800  1.101500  1
  H  H218  1  0.518300  0.391700  0.937900  1
  H  H219  1  0.401800  0.440700  0.973700  1
  H  H220  1  0.457900  0.350000  1.052600  1
  H  H221  1  0.147500  0.111700  0.978100  1
  H  H222  1  0.089200  0.165900  1.097900  1
  N  N223  1  -0.272060  0.608330  0.703580  1
  N  N224  1  1.060980  0.521790  0.095180  1
  N  N225  1  1.272060  0.391670  0.296420  1
  N  N226  1  -0.060980  0.478210  0.904820  1
  O  O227  1  -0.296060  0.437420  0.788320  1
  O  O228  1  1.034680  0.353740  0.198270  1
  O  O229  1  1.296060  0.562580  0.211680  1
  O  O230  1  -0.034680  0.646260  0.801730  1
  S  S231  1  -0.072140  0.380320  0.712270  1
  S  S232  1  0.800850  0.325770  0.322250  1
  S  S233  1  1.072140  0.619680  0.287730  1
  S  S234  1  0.199150  0.674230  0.677750  1
  Si  Si235  1  0.225760  0.017470  0.672280  1.0
  Si  Si236  1  0.371130  0.887740  0.211760  1
  Si  Si237  1  0.774240  0.982530  0.327720  1.0
  Si  Si238  1  0.628870  0.112260  0.788240  1
