# generated using pymatgen
data_SiH36C29SF
_symmetry_space_group_name_H-M   'P 1'
_cell_length_a   8.80770000
_cell_length_b   9.72640000
_cell_length_c   16.08410000
_cell_angle_alpha   100.05300000
_cell_angle_beta   92.16800000
_cell_angle_gamma   110.36300000
_symmetry_Int_Tables_number   1
_chemical_formula_structural   SiH36C29SF
_chemical_formula_sum   'Si2 H72 C58 S2 F2'
_cell_volume   1264.66690201
_cell_formula_units_Z   2
loop_
 _symmetry_equiv_pos_site_id
 _symmetry_equiv_pos_as_xyz
  1  'x, y, z'
loop_
 _atom_site_type_symbol
 _atom_site_label
 _atom_site_symmetry_multiplicity
 _atom_site_fract_x
 _atom_site_fract_y
 _atom_site_fract_z
 _atom_site_occupancy
  C  C1  1  0.618000  0.323100  0.691820  1
  C  C2  1  0.516700  0.271600  0.861970  1
  C  C3  1  0.694400  0.077700  0.753170  1
  C  C4  1  0.883900  0.408500  0.834150  1
  C  C5  1  0.580300  0.370040  0.632690  1
  C  C6  1  0.349400  0.151800  0.827670  1
  C  C7  1  0.561700  0.264100  0.953520  1
  C  C8  1  0.551500  -0.040700  0.694060  1
  C  C9  1  0.738400  0.012600  0.826850  1
  C  C10  1  1.015200  0.409500  0.773790  1
  C  C11  1  0.878500  0.566100  0.859190  1
  C  C12  1  0.539700  0.433150  0.565000  1
  C  C13  1  0.218300  0.161000  0.885360  1
  C  C14  1  0.428700  0.272400  1.010440  1
  C  C15  1  0.586400  -0.182600  0.661960  1
  C  C16  1  0.774600  -0.128300  0.793260  1
  C  C17  1  1.181300  0.528900  0.809340  1
  C  C18  1  1.045400  0.683900  0.895080  1
  C  C19  1  0.665500  0.538560  0.532060  1
  C  C20  1  0.374500  0.393860  0.534120  1
  C  C21  1  0.265400  0.150700  0.974860  1
  C  C22  1  0.632100  -0.245000  0.735410  1
  C  C23  1  1.171100  0.683600  0.832920  1
  C  C24  1  0.830800  0.580800  0.564420  1
  C  C25  1  0.625500  0.606140  0.465880  1
  C  C26  1  0.334500  0.461440  0.467940  1
  C  C27  1  0.248500  0.287100  0.566070  1
  C  C28  1  0.948600  0.685800  0.533130  1
  C  C29  1  0.460300  0.566850  0.435000  1
  C  C30  1  0.751500  0.712900  0.433930  1
  C  C31  1  0.169200  0.419200  0.435580  1
  C  C32  1  0.090000  0.247500  0.533160  1
  C  C33  1  0.910000  0.752500  0.466840  1
  C  C34  1  0.419700  0.629960  0.367310  1
  C  C35  1  0.051400  0.314200  0.466870  1
  C  C36  1  -0.056200  0.129500  0.552200  1
  C  C37  1  1.056200  0.870500  0.447800  1
  C  C38  1  1.187100  0.880300  0.496300  1
  C  C39  1  0.382000  0.676900  0.308180  1
  C  C40  1  -0.187100  0.119700  0.503700  1
  C  C41  1  0.483300  0.728400  0.138030  1
  C  C42  1  0.305600  0.922300  0.246830  1
  C  C43  1  0.116100  0.591500  0.165850  1
  C  C44  1  0.650600  0.848200  0.172330  1
  C  C45  1  0.438300  0.735900  0.046480  1
  C  C46  1  0.448500  1.040700  0.305940  1
  C  C47  1  0.261600  0.987400  0.173150  1
  C  C48  1  -0.015200  0.590500  0.226210  1
  C  C49  1  0.121500  0.433900  0.140810  1
  C  C50  1  0.781700  0.839000  0.114640  1
  C  C51  1  0.571300  0.727600  -0.010440  1
  C  C52  1  0.413600  1.182600  0.338040  1
  C  C53  1  0.225400  1.128300  0.206740  1
  C  C54  1  -0.181300  0.471100  0.190660  1
  C  C55  1  -0.045400  0.316100  0.104920  1
  C  C56  1  0.734600  0.849300  0.025140  1
  C  C57  1  0.367900  1.245000  0.264590  1
  C  C58  1  -0.171100  0.316400  0.167080  1
  F  F59  1  1.339000  0.973200  0.495790  1
  F  F60  1  -0.339000  0.026800  0.504210  1
  H  H61  1  0.504500  0.370600  0.864400  1
  H  H62  1  0.789600  0.096000  0.719100  1
  H  H63  1  0.916200  0.380100  0.887000  1
  H  H64  1  0.317400  0.164100  0.770500  1
  H  H65  1  0.357100  0.051500  0.821800  1
  H  H66  1  0.580100  0.169400  0.953900  1
  H  H67  1  0.664600  0.348000  0.976700  1
  H  H68  1  0.453300  -0.066000  0.724800  1
  H  H69  1  0.528700  0.000600  0.645000  1
  H  H70  1  0.835100  0.088100  0.862900  1
  H  H71  1  0.646800  -0.011900  0.862300  1
  H  H72  1  1.025500  0.309900  0.763200  1
  H  H73  1  0.980600  0.427800  0.718800  1
  H  H74  1  0.837800  0.593500  0.808700  1
  H  H75  1  0.801000  0.565800  0.902200  1
  H  H76  1  0.201700  0.256800  0.886300  1
  H  H77  1  0.114300  0.078400  0.862400  1
  H  H78  1  0.459700  0.261300  1.068000  1
  H  H79  1  0.418600  0.371700  1.015400  1
  H  H80  1  0.488700  -0.258700  0.626900  1
  H  H81  1  0.676700  -0.159900  0.625600  1
  H  H82  1  0.871600  -0.101900  0.761700  1
  H  H83  1  0.799400  -0.170200  0.841700  1
  H  H84  1  1.222900  0.503400  0.860300  1
  H  H85  1  1.259100  0.530000  0.766400  1
  H  H86  1  1.036700  0.784100  0.907300  1
  H  H87  1  1.081200  0.663100  0.949100  1
  H  H88  1  0.272300  0.051300  0.974700  1
  H  H89  1  0.180800  0.161600  1.011500  1
  H  H90  1  0.537600  -0.278100  0.768100  1
  H  H91  1  0.660900  -0.333200  0.712900  1
  H  H92  1  1.278900  0.757000  0.858800  1
  H  H93  1  1.141000  0.714100  0.781000  1
  H  H94  1  0.859200  0.536200  0.607700  1
  H  H95  1  0.273800  0.242900  0.610300  1
  H  H96  1  0.726200  0.757100  0.389700  1
  H  H97  1  0.140800  0.463800  0.392300  1
  H  H98  1  -0.056600  0.069600  0.593100  1
  H  H99  1  1.056600  0.930400  0.406900  1
  H  H100  1  0.495500  0.629400  0.135600  1
  H  H101  1  0.210400  0.904000  0.280900  1
  H  H102  1  0.083800  0.619900  0.113000  1
  H  H103  1  0.682600  0.835900  0.229500  1
  H  H104  1  0.642900  0.948500  0.178200  1
  H  H105  1  0.419900  0.830600  0.046100  1
  H  H106  1  0.335400  0.652000  0.023300  1
  H  H107  1  0.546700  1.066000  0.275200  1
  H  H108  1  0.471300  0.999400  0.355000  1
  H  H109  1  0.164900  0.911900  0.137100  1
  H  H110  1  0.353200  1.011900  0.137700  1
  H  H111  1  -0.025500  0.690100  0.236800  1
  H  H112  1  0.019400  0.572200  0.281200  1
  H  H113  1  0.162200  0.406500  0.191300  1
  H  H114  1  0.199000  0.434200  0.097800  1
  H  H115  1  0.798300  0.743200  0.113700  1
  H  H116  1  0.885700  0.921600  0.137600  1
  H  H117  1  0.540300  0.738700  -0.068000  1
  H  H118  1  0.581400  0.628300  -0.015400  1
  H  H119  1  0.511300  1.258700  0.373100  1
  H  H120  1  0.323300  1.159900  0.374400  1
  H  H121  1  0.128400  1.101900  0.238300  1
  H  H122  1  0.200600  1.170200  0.158300  1
  H  H123  1  -0.222900  0.496600  0.139700  1
  H  H124  1  -0.259100  0.470000  0.233600  1
  H  H125  1  -0.036700  0.215900  0.092700  1
  H  H126  1  -0.081200  0.336900  0.050900  1
  H  H127  1  0.727700  0.948700  0.025300  1
  H  H128  1  0.819200  0.838400  -0.011500  1
  H  H129  1  0.462400  1.278100  0.231900  1
  H  H130  1  0.339100  1.333200  0.287100  1
  H  H131  1  -0.278900  0.243000  0.141200  1
  H  H132  1  -0.141000  0.285900  0.219000  1
  S  S133  1  1.157110  0.763560  0.569630  1
  S  S134  1  -0.157110  0.236440  0.430370  1
  Si  Si135  1  0.677240  0.265910  0.787860  1.0
  Si  Si136  1  0.322760  0.734090  0.212140  1
