# generated using pymatgen
data_SiH23C19S
_symmetry_space_group_name_H-M   'P 1'
_cell_length_a   7.90280000
_cell_length_b   10.48730000
_cell_length_c   10.84120000
_cell_angle_alpha   76.32180000
_cell_angle_beta   88.43910000
_cell_angle_gamma   88.96300000
_symmetry_Int_Tables_number   1
_chemical_formula_structural   SiH23C19S
_chemical_formula_sum   'Si2 H46 C38 S2'
_cell_volume   872.63894292
_cell_formula_units_Z   2
loop_
 _symmetry_equiv_pos_site_id
 _symmetry_equiv_pos_as_xyz
  1  'x, y, z'
loop_
 _atom_site_type_symbol
 _atom_site_label
 _atom_site_symmetry_multiplicity
 _atom_site_fract_x
 _atom_site_fract_y
 _atom_site_fract_z
 _atom_site_occupancy
  C  C1  1  0.946900  0.299400  0.495100  1
  C  C2  1  0.729000  0.463100  0.287600  1
  C  C3  1  0.590300  0.201800  0.456400  1
  C  C4  1  0.868000  0.199700  0.265900  1
  C  C5  1  1.004900  0.165600  0.575000  1
  C  C6  1  0.669100  0.553100  0.363200  1
  C  C7  1  0.444800  0.192500  0.367800  1
  C  C8  1  0.913300  0.139960  0.188050  1
  C  C9  1  0.958200  0.068730  0.094350  1
  C  C10  1  0.842800  -0.022700  0.069400  1
  C  C11  1  1.114600  0.092620  0.027160  1
  C  C12  1  0.685700  -0.046740  0.136230  1
  C  C13  1  0.885400  -0.092620  -0.027160  1
  C  C14  1  1.157200  0.022700  -0.069400  1
  C  C15  1  1.231300  0.184090  0.052100  1
  C  C16  1  0.576100  -0.135800  0.109660  1
  C  C17  1  1.041800  -0.068730  -0.094350  1
  C  C18  1  0.768700  -0.184090  -0.052100  1
  C  C19  1  1.314300  0.046740  -0.136230  1
  C  C20  1  1.381500  0.206180  -0.014700  1
  C  C21  1  0.618500  -0.206180  0.014700  1
  C  C22  1  1.086700  -0.139960  -0.188050  1
  C  C23  1  1.423900  0.135800  -0.109660  1
  C  C24  1  1.528400  0.294500  -0.021600  1
  C  C25  1  0.471600  -0.294500  0.021600  1
  C  C26  1  0.340900  -0.278000  0.111700  1
  C  C27  1  1.132000  -0.199700  -0.265900  1
  C  C28  1  1.659100  0.278000  -0.111700  1
  C  C29  1  0.180200  -0.350600  0.144300  1
  C  C30  1  1.819800  0.350600  -0.144300  1
  C  C31  1  0.203000  -0.486900  0.198700  1
  C  C32  1  1.053100  -0.299400  -0.495100  1
  C  C33  1  1.271000  -0.463100  -0.287600  1
  C  C34  1  1.409700  -0.201800  -0.456400  1
  C  C35  1  1.797000  0.486900  -0.198700  1
  C  C36  1  0.995100  -0.165600  -0.575000  1
  C  C37  1  1.330900  -0.553100  -0.363200  1
  C  C38  1  1.555200  -0.192500  -0.367800  1
  H  H39  1  1.046500  0.345200  0.448700  1
  H  H40  1  0.902200  0.352900  0.552900  1
  H  H41  1  0.831200  0.500800  0.238600  1
  H  H42  1  0.641100  0.457800  0.225700  1
  H  H43  1  0.624900  0.111700  0.500300  1
  H  H44  1  0.546700  0.246300  0.522100  1
  H  H45  1  0.908700  0.121500  0.625300  1
  H  H46  1  1.093900  0.178300  0.632000  1
  H  H47  1  1.049200  0.111600  0.518800  1
  H  H48  1  0.564300  0.519700  0.409000  1
  H  H49  1  0.647200  0.639600  0.307200  1
  H  H50  1  0.755300  0.560700  0.424200  1
  H  H51  1  0.406200  0.281000  0.325700  1
  H  H52  1  0.350800  0.144300  0.417600  1
  H  H53  1  0.484700  0.146100  0.303700  1
  H  H54  1  0.656200  -0.000900  0.199700  1
  H  H55  1  1.204900  0.230400  0.115700  1
  H  H56  1  0.795100  -0.230400  -0.115700  1
  H  H57  1  1.343800  0.000900  -0.199700  1
  H  H58  1  1.535200  0.356600  0.029200  1
  H  H59  1  0.464800  -0.356600  -0.029200  1
  H  H60  1  0.113600  -0.311200  0.204900  1
  H  H61  1  0.113600  -0.339600  0.066400  1
  H  H62  1  1.886400  0.311200  -0.204900  1
  H  H63  1  1.886400  0.339600  -0.066400  1
  H  H64  1  0.092200  -0.529000  0.215000  1
  H  H65  1  0.262600  -0.498900  0.278800  1
  H  H66  1  0.269700  -0.526800  0.139800  1
  H  H67  1  0.953500  -0.345200  -0.448700  1
  H  H68  1  1.097800  -0.352900  -0.552900  1
  H  H69  1  1.168800  -0.500800  -0.238600  1
  H  H70  1  1.358900  -0.457800  -0.225700  1
  H  H71  1  1.375100  -0.111700  -0.500300  1
  H  H72  1  1.453300  -0.246300  -0.522100  1
  H  H73  1  1.907800  0.529000  -0.215000  1
  H  H74  1  1.737400  0.498900  -0.278800  1
  H  H75  1  1.730300  0.526800  -0.139800  1
  H  H76  1  1.091300  -0.121500  -0.625300  1
  H  H77  1  0.906100  -0.178300  -0.632000  1
  H  H78  1  0.950800  -0.111600  -0.518800  1
  H  H79  1  1.435700  -0.519700  -0.409000  1
  H  H80  1  1.352800  -0.639600  -0.307200  1
  H  H81  1  1.244700  -0.560700  -0.424200  1
  H  H82  1  1.593800  -0.281000  -0.325700  1
  H  H83  1  1.649200  -0.144300  -0.417600  1
  H  H84  1  1.515300  -0.146100  -0.303700  1
  S  S85  1  0.376960  -0.174720  0.191170  1
  S  S86  1  1.623040  0.174720  -0.191170  1
  Si  Si87  1  0.782520  0.290510  0.378810  1.0
  Si  Si88  1  1.217480  -0.290510  -0.378810  1
