# generated using pymatgen
data_SiH19C17S
_symmetry_space_group_name_H-M   'P 1'
_cell_length_a   6.73180000
_cell_length_b   7.25110000
_cell_length_c   16.69500000
_cell_angle_alpha   98.14420000
_cell_angle_beta   94.52890000
_cell_angle_gamma   103.91830000
_symmetry_Int_Tables_number   1
_chemical_formula_structural   SiH19C17S
_chemical_formula_sum   'Si2 H38 C34 S2'
_cell_volume   777.59065184
_cell_formula_units_Z   2
loop_
 _symmetry_equiv_pos_site_id
 _symmetry_equiv_pos_as_xyz
  1  'x, y, z'
loop_
 _atom_site_type_symbol
 _atom_site_label
 _atom_site_symmetry_multiplicity
 _atom_site_fract_x
 _atom_site_fract_y
 _atom_site_fract_z
 _atom_site_occupancy
  C  C1  1  0.700700  0.396400  0.279500  1
  C  C2  1  0.669800  0.128500  0.119700  1
  C  C3  1  0.691600  0.561300  0.127350  1
  C  C4  1  1.072600  0.427500  0.186980  1
  C  C5  1  0.642900  0.423100  0.345820  1
  C  C6  1  0.442700  0.045900  0.126410  1
  C  C7  1  0.771100  0.592300  0.045290  1
  C  C8  1  1.189200  0.616700  0.240930  1
  C  C9  1  0.572300  0.459600  0.423690  1
  C  C10  1  0.706000  0.589500  0.487760  1
  C  C11  1  0.367900  0.366700  0.434960  1
  C  C12  1  0.912600  0.677400  0.477440  1
  C  C13  1  0.632100  0.633300  0.565040  1
  C  C14  1  0.294000  0.410500  0.512240  1
  C  C15  1  0.236800  0.228600  0.372190  1
  C  C16  1  1.037700  0.807100  0.539880  1
  C  C17  1  0.427700  0.540400  0.576310  1
  C  C18  1  0.763200  0.771400  0.627810  1
  C  C19  1  0.087400  0.322600  0.522560  1
  C  C20  1  0.039700  0.142900  0.385000  1
  C  C21  1  1.252900  0.908200  0.539700  1
  C  C22  1  0.960300  0.857100  0.615000  1
  C  C23  1  0.357100  0.576900  0.654180  1
  C  C24  1  -0.037700  0.192900  0.460120  1
  C  C25  1  1.328800  1.031400  0.611250  1
  C  C26  1  0.299300  0.603600  0.720500  1
  C  C27  1  -0.252900  0.091800  0.460300  1
  C  C28  1  -0.328800  -0.031400  0.388750  1
  C  C29  1  0.330200  0.871500  0.880300  1
  C  C30  1  0.308400  0.438700  0.872650  1
  C  C31  1  -0.072600  0.572500  0.813020  1
  C  C32  1  0.557300  0.954100  0.873590  1
  C  C33  1  0.228900  0.407700  0.954710  1
  C  C34  1  -0.189200  0.383300  0.759070  1
  H  H35  1  0.687400  0.129500  0.061400  1
  H  H36  1  0.748300  0.041200  0.139400  1
  H  H37  1  0.539100  0.521700  0.118800  1
  H  H38  1  0.733100  0.685900  0.165100  1
  H  H39  1  1.113300  0.320500  0.209000  1
  H  H40  1  1.116700  0.427900  0.131800  1
  H  H41  1  0.422900  0.041900  0.183700  1
  H  H42  1  0.397000  -0.084800  0.095100  1
  H  H43  1  0.361900  0.127400  0.104700  1
  H  H44  1  0.921800  0.636200  0.053100  1
  H  H45  1  0.713800  0.689700  0.023600  1
  H  H46  1  0.728200  0.470700  0.006800  1
  H  H47  1  1.155800  0.724800  0.218400  1
  H  H48  1  1.337800  0.628900  0.242900  1
  H  H49  1  1.149000  0.617900  0.296100  1
  H  H50  1  0.964300  0.646500  0.427300  1
  H  H51  1  0.285400  0.195700  0.321600  1
  H  H52  1  0.714600  0.804300  0.678400  1
  H  H53  1  0.035700  0.353500  0.572700  1
  H  H54  1  1.330500  0.890700  0.495400  1
  H  H55  1  1.466200  1.109800  0.621800  1
  H  H56  1  -0.330500  0.109300  0.504600  1
  H  H57  1  -0.466200  -0.109800  0.378200  1
  H  H58  1  0.312600  0.870500  0.938600  1
  H  H59  1  0.251700  0.958800  0.860600  1
  H  H60  1  0.460900  0.478300  0.881200  1
  H  H61  1  0.266900  0.314100  0.834900  1
  H  H62  1  -0.113300  0.679500  0.791000  1
  H  H63  1  -0.116700  0.572100  0.868200  1
  H  H64  1  0.577100  0.958100  0.816300  1
  H  H65  1  0.603000  1.084800  0.904900  1
  H  H66  1  0.638100  0.872600  0.895300  1
  H  H67  1  0.078200  0.363800  0.946900  1
  H  H68  1  0.286200  0.310300  0.976400  1
  H  H69  1  0.271800  0.529300  0.993200  1
  H  H70  1  -0.155800  0.275200  0.781600  1
  H  H71  1  -0.337800  0.371100  0.757100  1
  H  H72  1  -0.149000  0.382100  0.703900  1
  S  S73  1  -0.150120  -0.031440  0.318740  1
  S  S74  1  1.150120  1.031440  0.681260  1
  Si  Si75  1  0.785400  0.377470  0.177320  1.0
  Si  Si76  1  0.214600  0.622530  0.822680  1
