# generated using pymatgen
data_SiH17C19F4
_symmetry_space_group_name_H-M   'P 1'
_cell_length_a   11.55020000
_cell_length_b   11.67100000
_cell_length_c   13.66570000
_cell_angle_alpha   66.25200000
_cell_angle_beta   83.71900000
_cell_angle_gamma   79.41400000
_symmetry_Int_Tables_number   1
_chemical_formula_structural   SiH17C19F4
_chemical_formula_sum   'Si4 H68 C76 F16'
_cell_volume   1656.20093530
_cell_formula_units_Z   4
loop_
 _symmetry_equiv_pos_site_id
 _symmetry_equiv_pos_as_xyz
  1  'x, y, z'
loop_
 _atom_site_type_symbol
 _atom_site_label
 _atom_site_symmetry_multiplicity
 _atom_site_fract_x
 _atom_site_fract_y
 _atom_site_fract_z
 _atom_site_occupancy
  C  C1  1  0.228460  0.288170  0.301900  1
  C  C2  1  0.074280  0.205210  0.187260  1
  C  C3  1  0.008670  0.180420  0.417120  1
  C  C4  1  0.226010  0.012100  0.374590  1
  C  C5  1  0.302620  0.353270  0.290380  1
  C  C6  1  -0.005440  0.112430  0.191440  1
  C  C7  1  -0.073440  0.306610  0.383500  1
  C  C8  1  0.288220  -0.013670  0.476090  1
  C  C9  1  0.396120  0.423370  0.277400  1
  C  C10  1  0.464740  0.396600  0.365830  1
  C  C11  1  0.422650  0.514690  0.175600  1
  C  C12  1  0.438330  0.308390  0.468320  1
  C  C13  1  0.564530  0.460650  0.351210  1
  C  C14  1  0.522360  0.578860  0.161320  1
  C  C15  1  0.355400  0.543490  0.086980  1
  C  C16  1  0.504900  0.283670  0.554220  1
  C  C17  1  0.632250  0.433390  0.439050  1
  C  C18  1  0.592270  0.550190  0.249160  1
  C  C19  1  0.548760  0.668600  0.059740  1
  C  C20  1  0.382630  0.631410  -0.012610  1
  C  C21  1  0.478260  0.197580  0.659220  1
  C  C22  1  0.605460  0.346950  0.539230  1
  C  C23  1  0.691210  0.613010  0.234450  1
  C  C24  1  0.482200  0.695590  -0.026490  1
  C  C25  1  0.317540  0.660940  -0.104240  1
  C  C26  1  0.544220  0.174440  0.742610  1
  C  C27  1  0.673110  0.317840  0.629120  1
  C  C28  1  0.774040  0.667570  0.221370  1
  C  C29  1  0.509300  0.783650  -0.130340  1
  C  C30  1  0.347010  0.745140  -0.201110  1
  C  C31  1  0.644500  0.235090  0.727010  1
  C  C32  1  0.445440  0.807730  -0.214770  1
  C  C33  1  0.884470  0.897620  0.085600  1
  C  C34  1  1.034580  0.635510  0.184130  1
  C  C35  1  0.912570  0.768410  0.331550  1
  C  C36  1  0.774170  0.990790  0.088100  1
  C  C37  1  1.014690  0.579300  0.105280  1
  C  C38  1  0.885220  0.653890  0.430850  1
  C  C39  1  0.771540  0.711830  0.698100  1
  C  C40  1  0.925720  0.794790  0.812740  1
  C  C41  1  0.991330  0.819580  0.582880  1
  C  C42  1  0.773990  0.987900  0.625410  1
  C  C43  1  0.697380  0.646730  0.709620  1
  C  C44  1  1.005440  0.887570  0.808560  1
  C  C45  1  1.073440  0.693390  0.616500  1
  C  C46  1  0.711780  1.013670  0.523910  1
  C  C47  1  0.603880  0.576630  0.722600  1
  C  C48  1  0.535260  0.603400  0.634170  1
  C  C49  1  0.577350  0.485310  0.824400  1
  C  C50  1  0.561670  0.691610  0.531680  1
  C  C51  1  0.435470  0.539350  0.648790  1
  C  C52  1  0.477640  0.421140  0.838680  1
  C  C53  1  0.644600  0.456510  0.913020  1
  C  C54  1  0.495100  0.716330  0.445780  1
  C  C55  1  0.367750  0.566610  0.560950  1
  C  C56  1  0.407730  0.449810  0.750840  1
  C  C57  1  0.451240  0.331400  0.940260  1
  C  C58  1  0.617370  0.368590  1.012610  1
  C  C59  1  0.521740  0.802420  0.340780  1
  C  C60  1  0.394540  0.653050  0.460770  1
  C  C61  1  0.308790  0.386990  0.765550  1
  C  C62  1  0.517800  0.304410  1.026490  1
  C  C63  1  0.682460  0.339060  1.104240  1
  C  C64  1  0.455780  0.825560  0.257390  1
  C  C65  1  0.326890  0.682160  0.370880  1
  C  C66  1  0.225960  0.332430  0.778630  1
  C  C67  1  0.490700  0.216350  1.130340  1
  C  C68  1  0.652990  0.254860  1.201110  1
  C  C69  1  0.355500  0.764910  0.272990  1
  C  C70  1  0.554560  0.192270  1.214770  1
  C  C71  1  0.115530  0.102380  0.914400  1
  C  C72  1  -0.034580  0.364490  0.815870  1
  C  C73  1  0.087430  0.231590  0.668450  1
  C  C74  1  0.225830  0.009210  0.911900  1
  C  C75  1  -0.014690  0.420700  0.894720  1
  C  C76  1  0.114780  0.346110  0.569150  1
  F  F77  1  0.384150  0.139460  0.675040  1
  F  F78  1  0.224990  0.601280  -0.093750  1
  F  F79  1  0.517710  0.095980  0.841710  1
  F  F80  1  0.768250  0.374620  0.615630  1
  F  F81  1  0.603450  0.841750  -0.143680  1
  F  F82  1  0.286240  0.771380  -0.287210  1
  F  F83  1  0.708570  0.206520  0.811770  1
  F  F84  1  0.472430  0.888030  -0.313040  1
  F  F85  1  0.615850  0.860540  0.324960  1
  F  F86  1  0.775010  0.398720  1.093750  1
  F  F87  1  0.482290  0.904020  0.158290  1
  F  F88  1  0.231750  0.625380  0.384370  1
  F  F89  1  0.396550  0.158250  1.143680  1
  F  F90  1  0.713760  0.228620  1.287210  1
  F  F91  1  0.291430  0.793480  0.188230  1
  F  F92  1  0.527570  0.111970  1.313040  1
  H  H93  1  0.029400  0.292100  0.160000  1
  H  H94  1  0.141400  0.202500  0.136200  1
  H  H95  1  -0.038500  0.112800  0.429200  1
  H  H96  1  0.042200  0.163200  0.486200  1
  H  H97  1  0.176000  -0.054100  0.390200  1
  H  H98  1  0.286200  0.005000  0.319100  1
  H  H99  1  0.040800  0.027700  0.210000  1
  H  H100  1  -0.039300  0.140000  0.121400  1
  H  H101  1  -0.069000  0.109900  0.245600  1
  H  H102  1  -0.028500  0.374300  0.373600  1
  H  H103  1  -0.135600  0.302900  0.439100  1
  H  H104  1  -0.109100  0.323900  0.316100  1
  H  H105  1  0.342700  0.047400  0.460200  1
  H  H106  1  0.332400  -0.099800  0.502000  1
  H  H107  1  0.229500  -0.005100  0.531200  1
  H  H108  1  0.373200  0.264900  0.478500  1
  H  H109  1  0.289600  0.501500  0.095700  1
  H  H110  1  0.698200  0.475500  0.429300  1
  H  H111  1  0.614000  0.711600  0.050400  1
  H  H112  1  0.954100  0.939800  0.076900  1
  H  H113  1  0.883300  0.878200  0.021600  1
  H  H114  1  1.102700  0.682000  0.157600  1
  H  H115  1  1.054900  0.565600  0.253800  1
  H  H116  1  0.992700  0.784500  0.335900  1
  H  H117  1  0.856000  0.843900  0.329900  1
  H  H118  1  0.704100  0.953500  0.089900  1
  H  H119  1  0.774600  1.069300  0.024000  1
  H  H120  1  0.772800  1.009500  0.152000  1
  H  H121  1  0.946400  0.534600  0.130100  1
  H  H122  1  1.084800  0.519800  0.100400  1
  H  H123  1  1.000200  0.647400  0.034600  1
  H  H124  1  0.804400  0.640400  0.428900  1
  H  H125  1  0.893400  0.669100  0.495100  1
  H  H126  1  0.940300  0.578600  0.432300  1
  H  H127  1  0.970600  0.707900  0.840000  1
  H  H128  1  0.858600  0.797500  0.863800  1
  H  H129  1  1.038500  0.887200  0.570800  1
  H  H130  1  0.957800  0.836800  0.513800  1
  H  H131  1  0.824000  1.054100  0.609800  1
  H  H132  1  0.713800  0.995000  0.680900  1
  H  H133  1  0.959200  0.972300  0.790000  1
  H  H134  1  1.039300  0.860000  0.878600  1
  H  H135  1  1.069000  0.890100  0.754400  1
  H  H136  1  1.028500  0.625700  0.626400  1
  H  H137  1  1.135600  0.697100  0.560900  1
  H  H138  1  1.109100  0.676100  0.683900  1
  H  H139  1  0.657300  0.952600  0.539800  1
  H  H140  1  0.667600  1.099800  0.498000  1
  H  H141  1  0.770500  1.005100  0.468800  1
  H  H142  1  0.626800  0.735100  0.521500  1
  H  H143  1  0.710400  0.498500  0.904300  1
  H  H144  1  0.301800  0.524500  0.570700  1
  H  H145  1  0.386000  0.288400  0.949600  1
  H  H146  1  0.045900  0.060200  0.923100  1
  H  H147  1  0.116700  0.121800  0.978400  1
  H  H148  1  -0.102700  0.318000  0.842400  1
  H  H149  1  -0.054900  0.434400  0.746200  1
  H  H150  1  0.007300  0.215500  0.664100  1
  H  H151  1  0.144000  0.156100  0.670100  1
  H  H152  1  0.295900  0.046500  0.910100  1
  H  H153  1  0.225400  -0.069300  0.976000  1
  H  H154  1  0.227200  -0.009500  0.848000  1
  H  H155  1  0.053600  0.465400  0.869900  1
  H  H156  1  -0.084800  0.480200  0.899600  1
  H  H157  1  -0.000200  0.352600  0.965400  1
  H  H158  1  0.195600  0.359600  0.571100  1
  H  H159  1  0.106600  0.330900  0.504900  1
  H  H160  1  0.059700  0.421400  0.567700  1
  Si  Si161  1  0.132460  0.170480  0.319950  1.0
  Si  Si162  1  0.904140  0.745310  0.205010  1
  Si  Si163  1  0.867540  0.829520  0.680050  1.0
  Si  Si164  1  0.095860  0.254690  0.794990  1
