# generated using pymatgen
data_SiH25C23N
_symmetry_space_group_name_H-M   'P 1'
_cell_length_a   7.86230000
_cell_length_b   15.17310000
_cell_length_c   17.11910000
_cell_angle_alpha   74.72780000
_cell_angle_beta   85.93860000
_cell_angle_gamma   84.90980000
_symmetry_Int_Tables_number   1
_chemical_formula_structural   SiH25C23N
_chemical_formula_sum   'Si4 H100 C92 N4'
_cell_volume   1959.94604833
_cell_formula_units_Z   4
loop_
 _symmetry_equiv_pos_site_id
 _symmetry_equiv_pos_as_xyz
  1  'x, y, z'
loop_
 _atom_site_type_symbol
 _atom_site_label
 _atom_site_symmetry_multiplicity
 _atom_site_fract_x
 _atom_site_fract_y
 _atom_site_fract_z
 _atom_site_occupancy
  C  C1  1  0.973100  0.260500  0.791780  1
  C  C2  1  1.179100  0.303500  0.633910  1
  C  C3  1  0.797900  0.390500  0.654040  1
  C  C4  1  0.866300  0.185400  0.660580  1
  C  C5  1  0.968200  0.240640  0.865140  1
  C  C6  1  1.277100  0.369600  0.665200  1
  C  C7  1  1.183300  0.330600  0.541300  1
  C  C8  1  0.858400  0.477500  0.669500  1
  C  C9  1  0.733700  0.411200  0.568100  1
  C  C10  1  0.988400  0.098400  0.684300  1
  C  C11  1  0.690400  0.168700  0.704100  1
  C  C12  1  0.953500  0.217470  0.951290  1
  C  C13  1  0.875600  0.136140  0.993560  1
  C  C14  1  1.013800  0.275340  0.994510  1
  C  C15  1  0.822600  0.075010  0.952480  1
  C  C16  1  0.845900  0.115880  1.080910  1
  C  C17  1  0.983800  0.255330  1.081460  1
  C  C18  1  1.100600  0.352960  0.954650  1
  C  C19  1  0.747100  -0.004320  0.993150  1
  C  C20  1  0.768200  0.035220  1.121250  1
  C  C21  1  0.892300  0.178500  1.122560  1
  C  C22  1  1.043300  0.313900  1.123290  1
  C  C23  1  1.158900  0.410220  0.996880  1
  C  C24  1  0.692800  -0.066500  0.951330  1
  C  C25  1  0.720400  -0.025500  1.080030  1
  C  C26  1  0.829000  0.170690  1.204160  1
  C  C27  1  1.130400  0.389700  1.083180  1
  C  C28  1  1.246400  0.489700  0.956100  1
  C  C29  1  0.620000  -0.144800  0.992430  1
  C  C30  1  0.646600  -0.108700  1.121190  1
  C  C31  1  0.755400  0.172200  1.267950  1
  C  C32  1  1.195200  0.448300  1.125680  1
  C  C33  1  1.303600  0.544900  0.998310  1
  C  C34  1  0.597200  -0.166700  1.079480  1
  C  C35  1  0.566700  -0.207200  0.949700  1
  C  C36  1  1.279100  0.523300  1.085010  1
  C  C37  1  0.536400  -0.254600  1.121700  1
  C  C38  1  0.614800  0.317100  1.350240  1
  C  C39  1  0.612300  0.108700  1.443700  1
  C  C40  1  0.379900  0.191800  1.297650  1
  C  C41  1  0.586700  0.387700  1.268800  1
  C  C42  1  0.787900  0.327700  1.380700  1
  C  C43  1  0.525500  0.143000  1.514810  1
  C  C44  1  0.797200  0.072500  1.462400  1
  C  C45  1  0.365100  0.101300  1.275700  1
  C  C46  1  0.225000  0.211700  1.350800  1
  C  C47  1  1.026900  -0.260500  1.208220  1
  C  C48  1  0.820900  -0.303500  1.366090  1
  C  C49  1  1.202100  -0.390500  1.345960  1
  C  C50  1  1.133700  -0.185400  1.339420  1
  C  C51  1  1.031800  -0.240640  1.134860  1
  C  C52  1  0.722900  -0.369600  1.334800  1
  C  C53  1  0.816700  -0.330600  1.458700  1
  C  C54  1  1.141600  -0.477500  1.330500  1
  C  C55  1  1.266300  -0.411200  1.431900  1
  C  C56  1  1.011600  -0.098400  1.315700  1
  C  C57  1  1.309600  -0.168700  1.295900  1
  C  C58  1  1.046500  -0.217470  1.048710  1
  C  C59  1  1.124400  -0.136140  1.006440  1
  C  C60  1  0.986200  -0.275340  1.005490  1
  C  C61  1  1.177400  -0.075010  1.047520  1
  C  C62  1  1.154100  -0.115880  0.919090  1
  C  C63  1  1.016200  -0.255330  0.918540  1
  C  C64  1  0.899400  -0.352960  1.045350  1
  C  C65  1  1.252900  0.004320  1.006850  1
  C  C66  1  1.231800  -0.035220  0.878750  1
  C  C67  1  1.107700  -0.178500  0.877440  1
  C  C68  1  0.956700  -0.313900  0.876710  1
  C  C69  1  0.841100  -0.410220  1.003120  1
  C  C70  1  1.307200  0.066500  1.048670  1
  C  C71  1  1.279600  0.025500  0.919970  1
  C  C72  1  1.171000  -0.170690  0.795840  1
  C  C73  1  0.869600  -0.389700  0.916820  1
  C  C74  1  0.753600  -0.489700  1.043900  1
  C  C75  1  1.380000  0.144800  1.007570  1
  C  C76  1  1.353400  0.108700  0.878810  1
  C  C77  1  1.244600  -0.172200  0.732050  1
  C  C78  1  0.804800  -0.448300  0.874320  1
  C  C79  1  0.696400  -0.544900  1.001690  1
  C  C80  1  1.402800  0.166700  0.920520  1
  C  C81  1  1.433300  0.207200  1.050300  1
  C  C82  1  0.720900  -0.523300  0.914990  1
  C  C83  1  1.463600  0.254600  0.878300  1
  C  C84  1  1.385200  -0.317100  0.649760  1
  C  C85  1  1.387700  -0.108700  0.556300  1
  C  C86  1  1.620100  -0.191800  0.702350  1
  C  C87  1  1.413300  -0.387700  0.731200  1
  C  C88  1  1.212100  -0.327700  0.619300  1
  C  C89  1  1.474500  -0.143000  0.485190  1
  C  C90  1  1.202800  -0.072500  0.537600  1
  C  C91  1  1.634900  -0.101300  0.724300  1
  C  C92  1  1.775000  -0.211700  0.649200  1
  H  H93  1  1.243600  0.242200  0.650200  1
  H  H94  1  0.695300  0.374900  0.691600  1
  H  H95  1  0.851000  0.199200  0.601000  1
  H  H96  1  1.396600  0.367300  0.644700  1
  H  H97  1  1.272500  0.351400  0.724600  1
  H  H98  1  1.224900  0.432000  0.646200  1
  H  H99  1  1.127400  0.392200  0.522200  1
  H  H100  1  1.123000  0.286800  0.522500  1
  H  H101  1  1.302300  0.330100  0.520000  1
  H  H102  1  0.949100  0.501000  0.629100  1
  H  H103  1  0.902600  0.463000  0.723900  1
  H  H104  1  0.762200  0.523900  0.665400  1
  H  H105  1  0.644000  0.461400  0.560600  1
  H  H106  1  0.687300  0.356500  0.560200  1
  H  H107  1  0.828800  0.429000  0.528400  1
  H  H108  1  1.008200  0.084300  0.742300  1
  H  H109  1  1.097400  0.108700  0.653100  1
  H  H110  1  0.937100  0.047000  0.672700  1
  H  H111  1  0.648900  0.113500  0.694800  1
  H  H112  1  0.610100  0.221400  0.683000  1
  H  H113  1  0.699900  0.160500  0.762400  1
  H  H114  1  0.839200  0.088700  0.895200  1
  H  H115  1  1.120000  0.366700  0.897400  1
  H  H116  1  0.747700  0.021900  1.178400  1
  H  H117  1  1.023200  0.301300  1.180400  1
  H  H118  1  0.707900  -0.052800  0.893900  1
  H  H119  1  1.264800  0.504200  0.898800  1
  H  H120  1  0.631400  -0.124000  1.178600  1
  H  H121  1  1.179500  0.434800  1.183000  1
  H  H122  1  0.524600  0.331500  1.390200  1
  H  H123  1  0.550300  0.055200  1.440400  1
  H  H124  1  0.375800  0.241200  1.245800  1
  H  H125  1  0.594800  0.449500  1.275300  1
  H  H126  1  0.473200  0.383000  1.250700  1
  H  H127  1  0.674200  0.375800  1.228400  1
  H  H128  1  0.879200  0.315000  1.342200  1
  H  H129  1  0.803600  0.284400  1.433800  1
  H  H130  1  0.792100  0.390400  1.385500  1
  H  H131  1  0.537500  0.094500  1.565300  1
  H  H132  1  0.404000  0.159200  1.505200  1
  H  H133  1  0.579900  0.197000  1.519200  1
  H  H134  1  0.860700  0.121800  1.470600  1
  H  H135  1  0.851200  0.050600  1.417000  1
  H  H136  1  0.797800  0.021900  1.511700  1
  H  H137  1  0.364800  0.050900  1.325200  1
  H  H138  1  0.462400  0.090600  1.239400  1
  H  H139  1  0.258500  0.104400  1.248300  1
  H  H140  1  0.120300  0.212000  1.322800  1
  H  H141  1  0.231800  0.271600  1.361400  1
  H  H142  1  0.223300  0.164200  1.402200  1
  H  H143  1  0.756400  -0.242200  1.349800  1
  H  H144  1  1.304700  -0.374900  1.308400  1
  H  H145  1  1.149000  -0.199200  1.399000  1
  H  H146  1  0.603400  -0.367300  1.355300  1
  H  H147  1  0.727500  -0.351400  1.275400  1
  H  H148  1  0.775100  -0.432000  1.353800  1
  H  H149  1  0.872600  -0.392200  1.477800  1
  H  H150  1  0.877000  -0.286800  1.477500  1
  H  H151  1  0.697700  -0.330100  1.480000  1
  H  H152  1  1.050900  -0.501000  1.370900  1
  H  H153  1  1.097400  -0.463000  1.276100  1
  H  H154  1  1.237800  -0.523900  1.334600  1
  H  H155  1  1.356000  -0.461400  1.439400  1
  H  H156  1  1.312700  -0.356500  1.439800  1
  H  H157  1  1.171200  -0.429000  1.471600  1
  H  H158  1  0.991800  -0.084300  1.257700  1
  H  H159  1  0.902600  -0.108700  1.346900  1
  H  H160  1  1.062900  -0.047000  1.327300  1
  H  H161  1  1.351100  -0.113500  1.305200  1
  H  H162  1  1.389900  -0.221400  1.317000  1
  H  H163  1  1.300100  -0.160500  1.237600  1
  H  H164  1  1.160800  -0.088700  1.104800  1
  H  H165  1  0.880000  -0.366700  1.102600  1
  H  H166  1  1.252300  -0.021900  0.821600  1
  H  H167  1  0.976800  -0.301300  0.819600  1
  H  H168  1  1.292100  0.052800  1.106100  1
  H  H169  1  0.735200  -0.504200  1.101200  1
  H  H170  1  1.368600  0.124000  0.821400  1
  H  H171  1  0.820500  -0.434800  0.817000  1
  H  H172  1  1.475400  -0.331500  0.609800  1
  H  H173  1  1.449700  -0.055200  0.559600  1
  H  H174  1  1.624200  -0.241200  0.754200  1
  H  H175  1  1.405200  -0.449500  0.724700  1
  H  H176  1  1.526800  -0.383000  0.749300  1
  H  H177  1  1.325800  -0.375800  0.771600  1
  H  H178  1  1.120800  -0.315000  0.657800  1
  H  H179  1  1.196400  -0.284400  0.566200  1
  H  H180  1  1.207900  -0.390400  0.614500  1
  H  H181  1  1.462500  -0.094500  0.434700  1
  H  H182  1  1.596000  -0.159200  0.494800  1
  H  H183  1  1.420100  -0.197000  0.480800  1
  H  H184  1  1.139300  -0.121800  0.529400  1
  H  H185  1  1.148800  -0.050600  0.583000  1
  H  H186  1  1.202200  -0.021900  0.488300  1
  H  H187  1  1.635200  -0.050900  0.674800  1
  H  H188  1  1.537600  -0.090600  0.760600  1
  H  H189  1  1.741500  -0.104400  0.751700  1
  H  H190  1  1.879700  -0.212000  0.677200  1
  H  H191  1  1.768200  -0.271600  0.638600  1
  H  H192  1  1.776700  -0.164200  0.597800  1
  N  N193  1  0.520700  -0.257800  0.915200  1
  N  N194  1  0.488400  -0.325900  1.157200  1
  N  N195  1  1.479300  0.257800  1.084800  1
  N  N196  1  1.511600  0.325900  0.842800  1
  Si  Si197  1  0.956540  0.287900  0.681130  1.0
  Si  Si198  1  0.589910  0.196960  1.343060  1
  Si  Si199  1  1.043460  -0.287900  1.318870  1.0
  Si  Si200  1  1.410090  -0.196960  0.656940  1
