# generated using pymatgen
data_Si2H63C50S2I
_symmetry_space_group_name_H-M   'P 1'
_cell_length_a   17.20300000
_cell_length_b   9.26690000
_cell_length_c   29.68990000
_cell_angle_alpha   90.00000000
_cell_angle_beta   92.91700000
_cell_angle_gamma   90.00000000
_symmetry_Int_Tables_number   1
_chemical_formula_structural   Si2H63C50S2I
_chemical_formula_sum   'Si8 H252 C200 S8 I4'
_cell_volume   4726.98605762
_cell_formula_units_Z   4
loop_
 _symmetry_equiv_pos_site_id
 _symmetry_equiv_pos_as_xyz
  1  'x, y, z'
loop_
 _atom_site_type_symbol
 _atom_site_label
 _atom_site_symmetry_multiplicity
 _atom_site_fract_x
 _atom_site_fract_y
 _atom_site_fract_z
 _atom_site_occupancy
  C  C1  1  0.314500  0.637600  0.621000  1
  C  C2  1  0.206200  0.691300  0.696100  1
  C  C3  1  0.158200  0.482400  0.620400  1
  C  C4  1  0.163700  0.808200  0.600000  1
  C  C5  1  0.381900  0.617600  0.615900  1
  C  C6  1  0.275100  0.768500  0.720100  1
  C  C7  1  0.191400  0.343200  0.642300  1
  C  C8  1  0.203500  0.842600  0.554900  1
  C  C9  1  0.462800  0.588700  0.614800  1
  C  C10  1  0.287000  0.920900  0.701400  1
  C  C11  1  0.266800  0.772400  0.771100  1
  C  C12  1  0.127500  0.229200  0.646500  1
  C  C13  1  0.257500  0.280900  0.616600  1
  C  C14  1  0.159900  0.967500  0.530600  1
  C  C15  1  0.206900  0.715500  0.523600  1
  C  C16  1  0.490600  0.490500  0.582400  1
  C  C17  1  0.513200  0.650300  0.648500  1
  C  C18  1  0.440700  0.425300  0.549800  1
  C  C19  1  0.572300  0.457600  0.583900  1
  C  C20  1  0.594100  0.613700  0.650600  1
  C  C21  1  0.485200  0.744700  0.681600  1
  C  C22  1  0.468000  0.325700  0.519100  1
  C  C23  1  0.599000  0.358700  0.552700  1
  C  C24  1  0.623200  0.520600  0.617500  1
  C  C25  1  0.643800  0.670800  0.685900  1
  C  C26  1  0.533400  0.794800  0.715600  1
  C  C27  1  0.417700  0.257500  0.486100  1
  C  C28  1  0.550000  0.290500  0.520800  1
  C  C29  1  0.705200  0.491400  0.619100  1
  C  C30  1  0.614500  0.758600  0.717700  1
  C  C31  1  0.446900  0.160500  0.456900  1
  C  C32  1  0.577900  0.187500  0.490000  1
  C  C33  1  0.774500  0.475100  0.620600  1
  C  C34  1  0.652900  0.824000  0.757100  1
  C  C35  1  0.604800  0.912000  0.781800  1
  C  C36  1  0.527800  0.126200  0.458400  1
  C  C37  1  0.545000  0.022000  0.424200  1
  C  C38  1  0.482100  -0.015000  0.398900  1
  C  C39  1  0.928200  0.474900  0.678500  1
  C  C40  1  0.922900  0.598000  0.582900  1
  C  C41  1  0.907900  0.272700  0.598400  1
  C  C42  1  0.944200  0.624000  0.698000  1
  C  C43  1  0.896800  0.604600  0.533000  1
  C  C44  1  0.886700  0.140900  0.627300  1
  C  C45  1  0.991700  0.613000  0.743100  1
  C  C46  1  0.868500  0.706000  0.705200  1
  C  C47  1  0.950800  0.697500  0.506600  1
  C  C48  1  0.814600  0.658400  0.525400  1
  C  C49  1  0.801800  0.099300  0.619700  1
  C  C50  1  0.938000  0.012300  0.616900  1
  C  C51  1  0.685500  1.137600  0.879000  1
  C  C52  1  0.793800  1.191300  0.803900  1
  C  C53  1  0.841800  0.982400  0.879600  1
  C  C54  1  0.836300  1.308200  0.900000  1
  C  C55  1  0.618100  1.117600  0.884100  1
  C  C56  1  0.724900  1.268500  0.779900  1
  C  C57  1  0.808600  0.843200  0.857700  1
  C  C58  1  0.796500  1.342600  0.945100  1
  C  C59  1  0.537200  1.088700  0.885200  1
  C  C60  1  0.713000  1.420900  0.798600  1
  C  C61  1  0.733200  1.272400  0.728900  1
  C  C62  1  0.872500  0.729200  0.853500  1
  C  C63  1  0.742500  0.780900  0.883400  1
  C  C64  1  0.840100  1.467500  0.969400  1
  C  C65  1  0.793100  1.215500  0.976400  1
  C  C66  1  0.509400  0.990500  0.917600  1
  C  C67  1  0.486800  1.150300  0.851500  1
  C  C68  1  0.559300  0.925300  0.950200  1
  C  C69  1  0.427700  0.957600  0.916100  1
  C  C70  1  0.405900  1.113700  0.849400  1
  C  C71  1  0.514800  1.244700  0.818400  1
  C  C72  1  0.532000  0.825700  0.980900  1
  C  C73  1  0.401000  0.858700  0.947300  1
  C  C74  1  0.376800  1.020600  0.882500  1
  C  C75  1  0.356200  1.170800  0.814100  1
  C  C76  1  0.466600  1.294800  0.784400  1
  C  C77  1  0.582300  0.757500  1.013900  1
  C  C78  1  0.450000  0.790500  0.979200  1
  C  C79  1  0.294800  0.991400  0.880900  1
  C  C80  1  0.385500  1.258600  0.782300  1
  C  C81  1  0.553100  0.660500  1.043100  1
  C  C82  1  0.422100  0.687500  1.010000  1
  C  C83  1  0.225500  0.975100  0.879400  1
  C  C84  1  0.347100  1.324000  0.742900  1
  C  C85  1  0.395200  1.412000  0.718200  1
  C  C86  1  0.472200  0.626200  1.041600  1
  C  C87  1  0.455000  0.522000  1.075800  1
  C  C88  1  0.517900  0.485000  1.101100  1
  C  C89  1  0.071800  0.974900  0.821500  1
  C  C90  1  0.077100  1.098000  0.917100  1
  C  C91  1  0.092100  0.772700  0.901600  1
  C  C92  1  0.055800  1.124000  0.802000  1
  C  C93  1  0.103200  1.104600  0.967000  1
  C  C94  1  0.113300  0.640900  0.872700  1
  C  C95  1  0.008300  1.113000  0.756900  1
  C  C96  1  0.131500  1.206000  0.794800  1
  C  C97  1  0.049200  1.197500  0.993400  1
  C  C98  1  0.185400  1.158400  0.974600  1
  C  C99  1  0.198200  0.599300  0.880300  1
  C  C100  1  0.062000  0.512300  0.883100  1
  C  C101  1  0.685500  0.362400  0.379000  1
  C  C102  1  0.793800  0.308700  0.303900  1
  C  C103  1  0.841800  0.517600  0.379600  1
  C  C104  1  0.836300  0.191800  0.400000  1
  C  C105  1  0.618100  0.382400  0.384100  1
  C  C106  1  0.724900  0.231500  0.279900  1
  C  C107  1  0.808600  0.656800  0.357700  1
  C  C108  1  0.796500  0.157400  0.445100  1
  C  C109  1  0.537200  0.411300  0.385200  1
  C  C110  1  0.713000  0.079100  0.298600  1
  C  C111  1  0.733200  0.227600  0.228900  1
  C  C112  1  0.872500  0.770800  0.353500  1
  C  C113  1  0.742500  0.719100  0.383400  1
  C  C114  1  0.840100  0.032500  0.469400  1
  C  C115  1  0.793100  0.284500  0.476400  1
  C  C116  1  0.509400  0.509500  0.417600  1
  C  C117  1  0.486800  0.349700  0.351500  1
  C  C118  1  0.559300  0.574700  0.450200  1
  C  C119  1  0.427700  0.542400  0.416100  1
  C  C120  1  0.405900  0.386300  0.349400  1
  C  C121  1  0.514800  0.255300  0.318400  1
  C  C122  1  0.532000  0.674300  0.480900  1
  C  C123  1  0.401000  0.641300  0.447300  1
  C  C124  1  0.376800  0.479400  0.382500  1
  C  C125  1  0.356200  0.329200  0.314100  1
  C  C126  1  0.466600  0.205200  0.284400  1
  C  C127  1  0.582300  0.742500  0.513900  1
  C  C128  1  0.450000  0.709500  0.479200  1
  C  C129  1  0.294800  0.508600  0.380900  1
  C  C130  1  0.385500  0.241400  0.282300  1
  C  C131  1  0.553100  0.839500  0.543100  1
  C  C132  1  0.422100  0.812500  0.510000  1
  C  C133  1  0.225500  0.524900  0.379400  1
  C  C134  1  0.347100  0.176000  0.242900  1
  C  C135  1  0.395200  0.088000  0.218200  1
  C  C136  1  0.472200  0.873800  0.541600  1
  C  C137  1  0.455000  0.978000  0.575800  1
  C  C138  1  0.517900  1.015000  0.601100  1
  C  C139  1  0.071800  0.525100  0.321500  1
  C  C140  1  0.077100  0.402000  0.417100  1
  C  C141  1  0.092100  0.727300  0.401600  1
  C  C142  1  0.055800  0.376000  0.302000  1
  C  C143  1  0.103200  0.395400  0.467000  1
  C  C144  1  0.113300  0.859100  0.372700  1
  C  C145  1  0.008300  0.387000  0.256900  1
  C  C146  1  0.131500  0.294000  0.294800  1
  C  C147  1  0.049200  0.302500  0.493400  1
  C  C148  1  0.185400  0.341600  0.474600  1
  C  C149  1  0.198200  0.900700  0.380300  1
  C  C150  1  0.062000  0.987700  0.383100  1
  C  C151  1  0.314500  -0.137600  0.121000  1
  C  C152  1  0.206200  -0.191300  0.196100  1
  C  C153  1  0.158200  0.017600  0.120400  1
  C  C154  1  0.163700  -0.308200  0.100000  1
  C  C155  1  0.381900  -0.117600  0.115900  1
  C  C156  1  0.275100  -0.268500  0.220100  1
  C  C157  1  0.191400  0.156800  0.142300  1
  C  C158  1  0.203500  -0.342600  0.054900  1
  C  C159  1  0.462800  -0.088700  0.114800  1
  C  C160  1  0.287000  -0.420900  0.201400  1
  C  C161  1  0.266800  -0.272400  0.271100  1
  C  C162  1  0.127500  0.270800  0.146500  1
  C  C163  1  0.257500  0.219100  0.116600  1
  C  C164  1  0.159900  -0.467500  0.030600  1
  C  C165  1  0.206900  -0.215500  0.023600  1
  C  C166  1  0.490600  0.009500  0.082400  1
  C  C167  1  0.513200  -0.150300  0.148500  1
  C  C168  1  0.440700  0.074700  0.049800  1
  C  C169  1  0.572300  0.042400  0.083900  1
  C  C170  1  0.594100  -0.113700  0.150600  1
  C  C171  1  0.485200  -0.244700  0.181600  1
  C  C172  1  0.468000  0.174300  0.019100  1
  C  C173  1  0.599000  0.141300  0.052700  1
  C  C174  1  0.623200  -0.020600  0.117500  1
  C  C175  1  0.643800  -0.170800  0.185900  1
  C  C176  1  0.533400  -0.294800  0.215600  1
  C  C177  1  0.417700  0.242500  -0.013900  1
  C  C178  1  0.550000  0.209500  0.020800  1
  C  C179  1  0.705200  0.008600  0.119100  1
  C  C180  1  0.614500  -0.258600  0.217700  1
  C  C181  1  0.446900  0.339500  -0.043100  1
  C  C182  1  0.577900  0.312500  -0.010000  1
  C  C183  1  0.774500  0.024900  0.120600  1
  C  C184  1  0.652900  -0.324000  0.257100  1
  C  C185  1  0.604800  -0.412000  0.281800  1
  C  C186  1  0.527800  0.373800  -0.041600  1
  C  C187  1  0.545000  0.478000  -0.075800  1
  C  C188  1  0.482100  0.515000  -0.101100  1
  C  C189  1  0.928200  0.025100  0.178500  1
  C  C190  1  0.922900  -0.098000  0.082900  1
  C  C191  1  0.907900  0.227300  0.098400  1
  C  C192  1  0.944200  -0.124000  0.198000  1
  C  C193  1  0.896800  -0.104600  0.033000  1
  C  C194  1  0.886700  0.359100  0.127300  1
  C  C195  1  0.991700  -0.113000  0.243100  1
  C  C196  1  0.868500  -0.206000  0.205200  1
  C  C197  1  0.950800  -0.197500  0.006600  1
  C  C198  1  0.814600  -0.158400  0.025400  1
  C  C199  1  0.801800  0.400700  0.119700  1
  C  C200  1  0.938000  0.487700  0.116900  1
  H  H201  1  0.158800  0.748900  0.700900  1
  H  H202  1  0.199500  0.597200  0.711300  1
  H  H203  1  0.103800  0.493000  0.629300  1
  H  H204  1  0.156400  0.469200  0.587300  1
  H  H205  1  0.108500  0.783500  0.592800  1
  H  H206  1  0.164800  0.896300  0.618900  1
  H  H207  1  0.322900  0.711400  0.714500  1
  H  H208  1  0.212300  0.367700  0.673400  1
  H  H209  1  0.258000  0.875000  0.562600  1
  H  H210  1  0.295200  0.915100  0.669000  1
  H  H211  1  0.332600  0.965200  0.717000  1
  H  H212  1  0.240800  0.979700  0.706300  1
  H  H213  1  0.262500  0.673600  0.782600  1
  H  H214  1  0.219900  0.826900  0.777900  1
  H  H215  1  0.312600  0.819100  0.785700  1
  H  H216  1  0.150600  0.139600  0.658500  1
  H  H217  1  0.102300  0.210500  0.616700  1
  H  H218  1  0.088700  0.264500  0.666900  1
  H  H219  1  0.279600  0.197500  0.633000  1
  H  H220  1  0.297800  0.354400  0.613700  1
  H  H221  1  0.237700  0.250500  0.586600  1
  H  H222  1  0.188100  0.997100  0.504300  1
  H  H223  1  0.156300  1.049400  0.551300  1
  H  H224  1  0.107400  0.935700  0.520800  1
  H  H225  1  0.154900  0.673200  0.519100  1
  H  H226  1  0.242900  0.643200  0.536700  1
  H  H227  1  0.225100  0.747400  0.494500  1
  H  H228  1  0.387000  0.449500  0.548600  1
  H  H229  1  0.432100  0.773300  0.679800  1
  H  H230  1  0.653000  0.337300  0.553300  1
  H  H231  1  0.697700  0.647800  0.687300  1
  H  H232  1  0.363700  0.279500  0.484500  1
  H  H233  1  0.631400  0.161400  0.491400  1
  H  H234  1  0.706300  0.808700  0.765400  1
  H  H235  1  0.622500  0.967500  0.807100  1
  H  H236  1  0.595500  -0.015100  0.420100  1
  H  H237  1  0.894800  0.423400  0.699400  1
  H  H238  1  0.978400  0.422700  0.678900  1
  H  H239  1  0.911600  0.693000  0.596300  1
  H  H240  1  0.980200  0.586300  0.584600  1
  H  H241  1  0.882500  0.260400  0.568000  1
  H  H242  1  0.964800  0.271100  0.594900  1
  H  H243  1  0.975200  0.679900  0.676400  1
  H  H244  1  0.898900  0.504300  0.520700  1
  H  H245  1  0.896300  0.166800  0.659800  1
  H  H246  1  1.041000  0.563500  0.738400  1
  H  H247  1  0.962100  0.558300  0.764700  1
  H  H248  1  1.002400  0.710100  0.754900  1
  H  H249  1  0.838100  0.713400  0.676500  1
  H  H250  1  0.880800  0.802900  0.716700  1
  H  H251  1  0.838200  0.654000  0.727100  1
  H  H252  1  1.004000  0.659500  0.510300  1
  H  H253  1  0.949700  0.796800  0.518000  1
  H  H254  1  0.933800  0.696200  0.474600  1
  H  H255  1  0.778400  0.588200  0.537500  1
  H  H256  1  0.802700  0.670900  0.493000  1
  H  H257  1  0.809000  0.751100  0.540800  1
  H  H258  1  0.790400  0.016400  0.638800  1
  H  H259  1  0.791200  0.073700  0.587900  1
  H  H260  1  0.768800  0.180900  0.627500  1
  H  H261  1  0.922500  -0.071100  0.634600  1
  H  H262  1  0.992500  0.036200  0.624700  1
  H  H263  1  0.931800  -0.010700  0.584700  1
  H  H264  1  0.841200  1.248900  0.799100  1
  H  H265  1  0.800500  1.097200  0.788700  1
  H  H266  1  0.896200  0.993000  0.870700  1
  H  H267  1  0.843600  0.969200  0.912700  1
  H  H268  1  0.891500  1.283500  0.907200  1
  H  H269  1  0.835200  1.396300  0.881100  1
  H  H270  1  0.677100  1.211400  0.785500  1
  H  H271  1  0.787700  0.867700  0.826600  1
  H  H272  1  0.742000  1.375000  0.937400  1
  H  H273  1  0.704800  1.415100  0.831000  1
  H  H274  1  0.667400  1.465200  0.783000  1
  H  H275  1  0.759200  1.479700  0.793700  1
  H  H276  1  0.737500  1.173600  0.717400  1
  H  H277  1  0.780100  1.326900  0.722100  1
  H  H278  1  0.687400  1.319100  0.714300  1
  H  H279  1  0.849400  0.639600  0.841500  1
  H  H280  1  0.897700  0.710500  0.883300  1
  H  H281  1  0.911300  0.764500  0.833100  1
  H  H282  1  0.720400  0.697500  0.867000  1
  H  H283  1  0.702200  0.854400  0.886300  1
  H  H284  1  0.762300  0.750500  0.913400  1
  H  H285  1  0.811900  1.497100  0.995700  1
  H  H286  1  0.843700  1.549400  0.948700  1
  H  H287  1  0.892600  1.435700  0.979200  1
  H  H288  1  0.845100  1.173200  0.980900  1
  H  H289  1  0.757100  1.143200  0.963300  1
  H  H290  1  0.774900  1.247400  1.005500  1
  H  H291  1  0.613000  0.949500  0.951400  1
  H  H292  1  0.567900  1.273300  0.820200  1
  H  H293  1  0.347000  0.837300  0.946700  1
  H  H294  1  0.302300  1.147800  0.812700  1
  H  H295  1  0.636300  0.779500  1.015500  1
  H  H296  1  0.368600  0.661400  1.008600  1
  H  H297  1  0.293700  1.308700  0.734600  1
  H  H298  1  0.377500  1.467500  0.692900  1
  H  H299  1  0.404500  0.484900  1.079900  1
  H  H300  1  0.105200  0.923400  0.800600  1
  H  H301  1  0.021600  0.922700  0.821100  1
  H  H302  1  0.088400  1.193000  0.903700  1
  H  H303  1  0.019800  1.086300  0.915400  1
  H  H304  1  0.117500  0.760400  0.932000  1
  H  H305  1  0.035200  0.771100  0.905100  1
  H  H306  1  0.024800  1.179900  0.823600  1
  H  H307  1  0.101100  1.004300  0.979300  1
  H  H308  1  0.103700  0.666800  0.840200  1
  H  H309  1  -0.041000  1.063500  0.761600  1
  H  H310  1  0.037900  1.058300  0.735300  1
  H  H311  1  -0.002400  1.210100  0.745100  1
  H  H312  1  0.161900  1.213400  0.823500  1
  H  H313  1  0.119200  1.302900  0.783300  1
  H  H314  1  0.161800  1.154000  0.772900  1
  H  H315  1  -0.004000  1.159500  0.989700  1
  H  H316  1  0.050300  1.296800  0.982000  1
  H  H317  1  0.066200  1.196200  1.025400  1
  H  H318  1  0.221600  1.088200  0.962500  1
  H  H319  1  0.197300  1.170900  1.007000  1
  H  H320  1  0.191000  1.251100  0.959200  1
  H  H321  1  0.209600  0.516400  0.861200  1
  H  H322  1  0.208800  0.573700  0.912100  1
  H  H323  1  0.231200  0.680900  0.872500  1
  H  H324  1  0.077500  0.428900  0.865400  1
  H  H325  1  0.007500  0.536200  0.875300  1
  H  H326  1  0.068200  0.489300  0.915300  1
  H  H327  1  0.841200  0.251100  0.299100  1
  H  H328  1  0.800500  0.402800  0.288700  1
  H  H329  1  0.896200  0.507000  0.370700  1
  H  H330  1  0.843600  0.530800  0.412700  1
  H  H331  1  0.891500  0.216500  0.407200  1
  H  H332  1  0.835200  0.103700  0.381100  1
  H  H333  1  0.677100  0.288600  0.285500  1
  H  H334  1  0.787700  0.632300  0.326600  1
  H  H335  1  0.742000  0.125000  0.437400  1
  H  H336  1  0.704800  0.084900  0.331000  1
  H  H337  1  0.667400  0.034800  0.283000  1
  H  H338  1  0.759200  0.020300  0.293700  1
  H  H339  1  0.737500  0.326400  0.217400  1
  H  H340  1  0.780100  0.173100  0.222100  1
  H  H341  1  0.687400  0.180900  0.214300  1
  H  H342  1  0.849400  0.860400  0.341500  1
  H  H343  1  0.897700  0.789500  0.383300  1
  H  H344  1  0.911300  0.735500  0.333100  1
  H  H345  1  0.720400  0.802500  0.367000  1
  H  H346  1  0.702200  0.645600  0.386300  1
  H  H347  1  0.762300  0.749500  0.413400  1
  H  H348  1  0.811900  0.002900  0.495700  1
  H  H349  1  0.843700  -0.049400  0.448700  1
  H  H350  1  0.892600  0.064300  0.479200  1
  H  H351  1  0.845100  0.326800  0.480900  1
  H  H352  1  0.757100  0.356800  0.463300  1
  H  H353  1  0.774900  0.252600  0.505500  1
  H  H354  1  0.613000  0.550500  0.451400  1
  H  H355  1  0.567900  0.226700  0.320200  1
  H  H356  1  0.347000  0.662700  0.446700  1
  H  H357  1  0.302300  0.352200  0.312700  1
  H  H358  1  0.636300  0.720500  0.515500  1
  H  H359  1  0.368600  0.838600  0.508600  1
  H  H360  1  0.293700  0.191300  0.234600  1
  H  H361  1  0.377500  0.032500  0.192900  1
  H  H362  1  0.404500  1.015100  0.579900  1
  H  H363  1  0.105200  0.576600  0.300600  1
  H  H364  1  0.021600  0.577300  0.321100  1
  H  H365  1  0.088400  0.307000  0.403700  1
  H  H366  1  0.019800  0.413700  0.415400  1
  H  H367  1  0.117500  0.739600  0.432000  1
  H  H368  1  0.035200  0.728900  0.405100  1
  H  H369  1  0.024800  0.320100  0.323600  1
  H  H370  1  0.101100  0.495700  0.479300  1
  H  H371  1  0.103700  0.833200  0.340200  1
  H  H372  1  -0.041000  0.436500  0.261600  1
  H  H373  1  0.037900  0.441700  0.235300  1
  H  H374  1  -0.002400  0.289900  0.245100  1
  H  H375  1  0.161900  0.286600  0.323500  1
  H  H376  1  0.119200  0.197100  0.283300  1
  H  H377  1  0.161800  0.346000  0.272900  1
  H  H378  1  -0.004000  0.340500  0.489700  1
  H  H379  1  0.050300  0.203200  0.482000  1
  H  H380  1  0.066200  0.303800  0.525400  1
  H  H381  1  0.221600  0.411800  0.462500  1
  H  H382  1  0.197300  0.329100  0.507000  1
  H  H383  1  0.191000  0.248900  0.459200  1
  H  H384  1  0.209600  0.983600  0.361200  1
  H  H385  1  0.208800  0.926300  0.412100  1
  H  H386  1  0.231200  0.819100  0.372500  1
  H  H387  1  0.077500  1.071100  0.365400  1
  H  H388  1  0.007500  0.963800  0.375300  1
  H  H389  1  0.068200  1.010700  0.415300  1
  H  H390  1  0.158800  -0.248900  0.200900  1
  H  H391  1  0.199500  -0.097200  0.211300  1
  H  H392  1  0.103800  0.007000  0.129300  1
  H  H393  1  0.156400  0.030800  0.087300  1
  H  H394  1  0.108500  -0.283500  0.092800  1
  H  H395  1  0.164800  -0.396300  0.118900  1
  H  H396  1  0.322900  -0.211400  0.214500  1
  H  H397  1  0.212300  0.132300  0.173400  1
  H  H398  1  0.258000  -0.375000  0.062600  1
  H  H399  1  0.295200  -0.415100  0.169000  1
  H  H400  1  0.332600  -0.465200  0.217000  1
  H  H401  1  0.240800  -0.479700  0.206300  1
  H  H402  1  0.262500  -0.173600  0.282600  1
  H  H403  1  0.219900  -0.326900  0.277900  1
  H  H404  1  0.312600  -0.319100  0.285700  1
  H  H405  1  0.150600  0.360400  0.158500  1
  H  H406  1  0.102300  0.289500  0.116700  1
  H  H407  1  0.088700  0.235500  0.166900  1
  H  H408  1  0.279600  0.302500  0.133000  1
  H  H409  1  0.297800  0.145600  0.113700  1
  H  H410  1  0.237700  0.249500  0.086600  1
  H  H411  1  0.188100  -0.497100  0.004300  1
  H  H412  1  0.156300  -0.549400  0.051300  1
  H  H413  1  0.107400  -0.435700  0.020800  1
  H  H414  1  0.154900  -0.173200  0.019100  1
  H  H415  1  0.242900  -0.143200  0.036700  1
  H  H416  1  0.225100  -0.247400  -0.005500  1
  H  H417  1  0.387000  0.050500  0.048600  1
  H  H418  1  0.432100  -0.273300  0.179800  1
  H  H419  1  0.653000  0.162700  0.053300  1
  H  H420  1  0.697700  -0.147800  0.187300  1
  H  H421  1  0.363700  0.220500  -0.015500  1
  H  H422  1  0.631400  0.338600  -0.008600  1
  H  H423  1  0.706300  -0.308700  0.265400  1
  H  H424  1  0.622500  -0.467500  0.307100  1
  H  H425  1  0.595500  0.515100  -0.079900  1
  H  H426  1  0.894800  0.076600  0.199400  1
  H  H427  1  0.978400  0.077300  0.178900  1
  H  H428  1  0.911600  -0.193000  0.096300  1
  H  H429  1  0.980200  -0.086300  0.084600  1
  H  H430  1  0.882500  0.239600  0.068000  1
  H  H431  1  0.964800  0.228900  0.094900  1
  H  H432  1  0.975200  -0.179900  0.176400  1
  H  H433  1  0.898900  -0.004300  0.020700  1
  H  H434  1  0.896300  0.333200  0.159800  1
  H  H435  1  1.041000  -0.063500  0.238400  1
  H  H436  1  0.962100  -0.058300  0.264700  1
  H  H437  1  1.002400  -0.210100  0.254900  1
  H  H438  1  0.838100  -0.213400  0.176500  1
  H  H439  1  0.880800  -0.302900  0.216700  1
  H  H440  1  0.838200  -0.154000  0.227100  1
  H  H441  1  1.004000  -0.159500  0.010300  1
  H  H442  1  0.949700  -0.296800  0.018000  1
  H  H443  1  0.933800  -0.196200  -0.025400  1
  H  H444  1  0.778400  -0.088200  0.037500  1
  H  H445  1  0.802700  -0.170900  -0.007000  1
  H  H446  1  0.809000  -0.251100  0.040800  1
  H  H447  1  0.790400  0.483600  0.138800  1
  H  H448  1  0.791200  0.426300  0.087900  1
  H  H449  1  0.768800  0.319100  0.127500  1
  H  H450  1  0.922500  0.571100  0.134600  1
  H  H451  1  0.992500  0.463800  0.124700  1
  H  H452  1  0.931800  0.510700  0.084700  1
  I  I453  1  0.479470  -0.155270  0.343780  1
  I  I454  1  0.520530  0.344730  1.156220  1
  I  I455  1  0.520530  1.155270  0.656220  1
  I  I456  1  0.479470  0.655270  -0.156220  1
  S  S457  1  0.508800  0.907300  0.760700  1
  S  S458  1  0.395300  0.066000  0.413490  1
  S  S459  1  0.491200  1.407300  0.739300  1
  S  S460  1  0.604700  0.566000  1.086510  1
  S  S461  1  0.491200  0.092700  0.239300  1
  S  S462  1  0.604700  0.934000  0.586510  1
  S  S463  1  0.508800  -0.407300  0.260700  1
  S  S464  1  0.395300  0.434000  -0.086510  1
  Si  Si465  1  0.210320  0.656300  0.633800  1.0
  Si  Si466  1  0.881230  0.455490  0.619890  1
  Si  Si467  1  0.789680  1.156300  0.866200  1.0
  Si  Si468  1  0.118770  0.955490  0.880110  1
  Si  Si469  1  0.789680  0.343700  0.366200  1.0
  Si  Si470  1  0.118770  0.544510  0.380110  1
  Si  Si471  1  0.210320  -0.156300  0.133800  1.0
  Si  Si472  1  0.881230  0.044510  0.119890  1
