# generated using pymatgen
data_SiH23C16S
_symmetry_space_group_name_H-M   'P 1'
_cell_length_a   9.06770000
_cell_length_b   12.17400000
_cell_length_c   15.70280000
_cell_angle_alpha   90.00000000
_cell_angle_beta   103.95900000
_cell_angle_gamma   90.00000000
_symmetry_Int_Tables_number   1
_chemical_formula_structural   SiH23C16S
_chemical_formula_sum   'Si4 H92 C64 S4'
_cell_volume   1682.24414426
_cell_formula_units_Z   4
loop_
 _symmetry_equiv_pos_site_id
 _symmetry_equiv_pos_as_xyz
  1  'x, y, z'
loop_
 _atom_site_type_symbol
 _atom_site_label
 _atom_site_symmetry_multiplicity
 _atom_site_fract_x
 _atom_site_fract_y
 _atom_site_fract_z
 _atom_site_occupancy
  C  C1  1  0.620000  0.765000  0.659410  1
  C  C2  1  0.706800  0.822300  0.849100  1
  C  C3  1  0.532300  0.989300  0.712280  1
  C  C4  1  0.864700  0.928600  0.715100  1
  C  C5  1  0.582900  0.687800  0.611180  1
  C  C6  1  0.584000  0.743000  0.861900  1
  C  C7  1  0.488300  1.022800  0.615000  1
  C  C8  1  0.988100  0.840800  0.723200  1
  C  C9  1  0.540800  0.594670  0.555150  1
  C  C10  1  0.606900  0.696500  0.952700  1
  C  C11  1  0.367700  1.107300  0.588500  1
  C  C12  1  1.123600  0.879300  0.691400  1
  C  C13  1  0.631400  0.557590  0.501400  1
  C  C14  1  0.406500  0.536200  0.553530  1
  C  C15  1  0.593500  0.463800  0.446470  1
  C  C16  1  0.368600  0.442410  0.498600  1
  C  C17  1  0.292000  0.556800  0.598900  1
  C  C18  1  0.459200  0.405330  0.444850  1
  C  C19  1  0.708000  0.443200  0.401100  1
  C  C20  1  0.825100  0.515700  0.419100  1
  C  C21  1  0.174900  0.484300  0.580900  1
  C  C22  1  0.417100  0.312200  0.388820  1
  C  C23  1  0.380000  0.235000  0.340590  1
  C  C24  1  0.293200  0.177700  0.150900  1
  C  C25  1  0.467700  0.010700  0.287720  1
  C  C26  1  0.135300  0.071400  0.284900  1
  C  C27  1  0.416000  0.257000  0.138100  1
  C  C28  1  0.511700  -0.022800  0.385000  1
  C  C29  1  0.011900  0.159200  0.276800  1
  C  C30  1  0.393100  0.303500  0.047300  1
  C  C31  1  0.632300  -0.107300  0.411500  1
  C  C32  1  -0.123600  0.120700  0.308600  1
  C  C33  1  0.880000  0.265000  0.840590  1
  C  C34  1  0.793200  0.322300  0.650900  1
  C  C35  1  0.967700  0.489300  0.787720  1
  C  C36  1  0.635300  0.428600  0.784900  1
  C  C37  1  0.917100  0.187800  0.888820  1
  C  C38  1  0.916000  0.243000  0.638100  1
  C  C39  1  1.011700  0.522800  0.885000  1
  C  C40  1  0.511900  0.340800  0.776800  1
  C  C41  1  0.959200  0.094670  0.944850  1
  C  C42  1  0.893100  0.196500  0.547300  1
  C  C43  1  1.132300  0.607300  0.911500  1
  C  C44  1  0.376400  0.379300  0.808600  1
  C  C45  1  0.868600  0.057590  0.998600  1
  C  C46  1  1.093500  0.036200  0.946470  1
  C  C47  1  0.906500  -0.036200  1.053530  1
  C  C48  1  1.131400  -0.057590  1.001400  1
  C  C49  1  1.208000  0.056800  0.901100  1
  C  C50  1  1.040800  -0.094670  1.055150  1
  C  C51  1  0.792000  -0.056800  1.098900  1
  C  C52  1  0.674900  0.015700  1.080900  1
  C  C53  1  1.325100  -0.015700  0.919100  1
  C  C54  1  1.082900  -0.187800  1.111180  1
  C  C55  1  1.120000  -0.265000  1.159410  1
  C  C56  1  1.206800  -0.322300  1.349100  1
  C  C57  1  1.032300  -0.489300  1.212280  1
  C  C58  1  1.364700  -0.428600  1.215100  1
  C  C59  1  1.084000  -0.243000  1.361900  1
  C  C60  1  0.988300  -0.522800  1.115000  1
  C  C61  1  1.488100  -0.340800  1.223200  1
  C  C62  1  1.106900  -0.196500  1.452700  1
  C  C63  1  0.867700  -0.607300  1.088500  1
  C  C64  1  1.623600  -0.379300  1.191400  1
  H  H65  1  0.805900  0.783900  0.865800  1
  H  H66  1  0.711000  0.884300  0.890400  1
  H  H67  1  0.440900  0.961500  0.729400  1
  H  H68  1  0.568900  1.054900  0.748500  1
  H  H69  1  0.843800  0.960000  0.655200  1
  H  H70  1  0.904600  0.988600  0.756900  1
  H  H71  1  0.485000  0.781600  0.846700  1
  H  H72  1  0.578200  0.681300  0.820100  1
  H  H73  1  0.580900  1.050000  0.599000  1
  H  H74  1  0.455000  0.955900  0.579700  1
  H  H75  1  1.022500  0.818400  0.785500  1
  H  H76  1  0.943900  0.775400  0.689000  1
  H  H77  1  0.707900  0.663000  0.970400  1
  H  H78  1  0.529200  0.640700  0.953100  1
  H  H79  1  0.598600  0.755500  0.993700  1
  H  H80  1  0.271000  1.078000  0.596000  1
  H  H81  1  0.357400  1.126900  0.526800  1
  H  H82  1  0.395100  1.172800  0.625200  1
  H  H83  1  1.092400  0.894300  0.628200  1
  H  H84  1  1.202000  0.822200  0.702600  1
  H  H85  1  1.164400  0.946600  0.722600  1
  H  H86  1  0.296800  0.616300  0.638600  1
  H  H87  1  0.703200  0.383700  0.361400  1
  H  H88  1  0.909500  0.512700  0.393200  1
  H  H89  1  0.090500  0.487300  0.606800  1
  H  H90  1  0.194100  0.216100  0.134200  1
  H  H91  1  0.289000  0.115700  0.109600  1
  H  H92  1  0.559100  0.038500  0.270600  1
  H  H93  1  0.431100  -0.054900  0.251500  1
  H  H94  1  0.156200  0.040000  0.344800  1
  H  H95  1  0.095400  0.011400  0.243100  1
  H  H96  1  0.515000  0.218400  0.153300  1
  H  H97  1  0.421800  0.318700  0.179900  1
  H  H98  1  0.419100  -0.050000  0.401000  1
  H  H99  1  0.545000  0.044100  0.420300  1
  H  H100  1  -0.022500  0.181600  0.214500  1
  H  H101  1  0.056100  0.224600  0.311000  1
  H  H102  1  0.292100  0.337000  0.029600  1
  H  H103  1  0.470800  0.359300  0.046900  1
  H  H104  1  0.401400  0.244500  0.006300  1
  H  H105  1  0.729000  -0.078000  0.404000  1
  H  H106  1  0.642600  -0.126900  0.473200  1
  H  H107  1  0.604900  -0.172800  0.374800  1
  H  H108  1  -0.092400  0.105700  0.371800  1
  H  H109  1  -0.202000  0.177800  0.297400  1
  H  H110  1  -0.164400  0.053400  0.277400  1
  H  H111  1  0.694100  0.283900  0.634200  1
  H  H112  1  0.789000  0.384300  0.609600  1
  H  H113  1  1.059100  0.461500  0.770600  1
  H  H114  1  0.931100  0.554900  0.751500  1
  H  H115  1  0.656200  0.460000  0.844800  1
  H  H116  1  0.595400  0.488600  0.743100  1
  H  H117  1  1.015000  0.281600  0.653300  1
  H  H118  1  0.921800  0.181300  0.679900  1
  H  H119  1  0.919100  0.550000  0.901000  1
  H  H120  1  1.045000  0.455900  0.920300  1
  H  H121  1  0.477500  0.318400  0.714500  1
  H  H122  1  0.556100  0.275400  0.811000  1
  H  H123  1  0.792100  0.163000  0.529600  1
  H  H124  1  0.970800  0.140700  0.546900  1
  H  H125  1  0.901400  0.255500  0.506300  1
  H  H126  1  1.229000  0.578000  0.904000  1
  H  H127  1  1.142600  0.626900  0.973200  1
  H  H128  1  1.104900  0.672800  0.874800  1
  H  H129  1  0.407600  0.394300  0.871800  1
  H  H130  1  0.298000  0.322200  0.797400  1
  H  H131  1  0.335600  0.446600  0.777400  1
  H  H132  1  1.203200  0.116300  0.861400  1
  H  H133  1  0.796800  -0.116300  1.138600  1
  H  H134  1  0.590500  0.012700  1.106800  1
  H  H135  1  1.409500  -0.012700  0.893200  1
  H  H136  1  1.305900  -0.283900  1.365800  1
  H  H137  1  1.211000  -0.384300  1.390400  1
  H  H138  1  0.940900  -0.461500  1.229400  1
  H  H139  1  1.068900  -0.554900  1.248500  1
  H  H140  1  1.343800  -0.460000  1.155200  1
  H  H141  1  1.404600  -0.488600  1.256900  1
  H  H142  1  0.985000  -0.281600  1.346700  1
  H  H143  1  1.078200  -0.181300  1.320100  1
  H  H144  1  1.080900  -0.550000  1.099000  1
  H  H145  1  0.955000  -0.455900  1.079700  1
  H  H146  1  1.522500  -0.318400  1.285500  1
  H  H147  1  1.443900  -0.275400  1.189000  1
  H  H148  1  1.207900  -0.163000  1.470400  1
  H  H149  1  1.029200  -0.140700  1.453100  1
  H  H150  1  1.098600  -0.255500  1.493700  1
  H  H151  1  0.771000  -0.578000  1.096000  1
  H  H152  1  0.857400  -0.626900  1.026800  1
  H  H153  1  0.895100  -0.672800  1.125200  1
  H  H154  1  1.592400  -0.394300  1.128200  1
  H  H155  1  1.702000  -0.322200  1.202600  1
  H  H156  1  1.664400  -0.446600  1.222600  1
  S  S157  1  0.803180  0.614640  0.494880  1
  S  S158  1  0.196820  0.385360  0.505120  1
  S  S159  1  0.696820  0.114640  1.005120  1
  S  S160  1  1.303180  -0.114640  0.994880  1
  Si  Si161  1  0.684470  0.880160  0.735830  1.0
  Si  Si162  1  0.315530  0.119840  0.264170  1
  Si  Si163  1  0.815530  0.380160  0.764170  1.0
  Si  Si164  1  1.184470  -0.380160  1.235830  1
