# generated using pymatgen
data_SiH20C18SF
_symmetry_space_group_name_H-M   'P 1'
_cell_length_a   6.99580000
_cell_length_b   7.29150000
_cell_length_c   17.08020000
_cell_angle_alpha   92.90740000
_cell_angle_beta   91.31340000
_cell_angle_gamma   105.68230000
_symmetry_Int_Tables_number   1
_chemical_formula_structural   SiH20C18SF
_chemical_formula_sum   'Si2 H40 C36 S2 F2'
_cell_volume   837.13863994
_cell_formula_units_Z   2
loop_
 _symmetry_equiv_pos_site_id
 _symmetry_equiv_pos_as_xyz
  1  'x, y, z'
loop_
 _atom_site_type_symbol
 _atom_site_label
 _atom_site_symmetry_multiplicity
 _atom_site_fract_x
 _atom_site_fract_y
 _atom_site_fract_z
 _atom_site_occupancy
  C  C1  1  0.770300  0.065900  0.712000  1
  C  C2  1  0.404000  0.041100  0.805750  1
  C  C3  1  0.733700  -0.130500  0.861900  1
  C  C4  1  0.819600  0.306100  0.863000  1
  C  C5  1  0.835400  0.050000  0.648100  1
  C  C6  1  0.289100  -0.121400  0.748650  1
  C  C7  1  0.701000  -0.141900  0.950600  1
  C  C8  1  1.045200  0.353100  0.860400  1
  C  C9  1  0.917000  0.027200  0.573020  1
  C  C10  1  1.151400  0.536900  0.903300  1
  C  C11  1  1.119000  0.121100  0.561340  1
  C  C12  1  0.795900  -0.090500  0.512650  1
  C  C13  1  1.238500  0.245900  0.620800  1
  C  C14  1  1.204100  0.090500  0.487350  1
  C  C15  1  0.881000  -0.121100  0.438660  1
  C  C16  1  0.590700  -0.179400  0.522860  1
  C  C17  1  1.434800  0.331100  0.608060  1
  C  C18  1  1.083000  -0.027200  0.426980  1
  C  C19  1  1.409300  0.179400  0.477140  1
  C  C20  1  0.761500  -0.245900  0.379200  1
  C  C21  1  0.477600  -0.295500  0.464160  1
  C  C22  1  1.522400  0.295500  0.535840  1
  C  C23  1  1.164600  -0.050000  0.351900  1
  C  C24  1  0.565200  -0.331100  0.391940  1
  C  C25  1  0.264000  -0.397000  0.461700  1
  C  C26  1  1.736000  0.397000  0.538300  1
  C  C27  1  1.790200  0.497000  0.604620  1
  C  C28  1  1.229700  -0.065900  0.288000  1
  C  C29  1  0.209800  -0.497000  0.395380  1
  C  C30  1  1.596000  -0.041100  0.194250  1
  C  C31  1  1.266300  0.130500  0.138100  1
  C  C32  1  1.180400  -0.306100  0.137000  1
  C  C33  1  1.710900  0.121400  0.251350  1
  C  C34  1  1.299000  0.141900  0.049400  1
  C  C35  1  0.954800  -0.353100  0.139600  1
  C  C36  1  0.848600  -0.536900  0.096700  1
  F  F37  1  1.973700  0.604300  0.625940  1
  F  F38  1  0.026300  -0.604300  0.374060  1
  H  H39  1  0.351300  0.017300  0.858700  1
  H  H40  1  0.379000  0.161500  0.789900  1
  H  H41  1  0.650700  -0.250400  0.835300  1
  H  H42  1  0.874100  -0.126500  0.853000  1
  H  H43  1  0.776100  0.409900  0.839300  1
  H  H44  1  0.782900  0.304900  0.918600  1
  H  H45  1  0.336600  -0.097400  0.695600  1
  H  H46  1  0.147200  -0.128900  0.749300  1
  H  H47  1  0.309900  -0.242100  0.764500  1
  H  H48  1  0.765900  -0.017900  0.977500  1
  H  H49  1  0.759000  -0.239300  0.970900  1
  H  H50  1  0.558700  -0.175800  0.959900  1
  H  H51  1  1.089600  0.248600  0.883100  1
  H  H52  1  1.083200  0.358500  0.804900  1
  H  H53  1  1.102100  0.640200  0.883700  1
  H  H54  1  1.294200  0.563700  0.895100  1
  H  H55  1  1.127700  0.527500  0.959500  1
  H  H56  1  1.183000  0.270300  0.669200  1
  H  H57  1  0.532300  -0.157700  0.570900  1
  H  H58  1  1.467700  0.157700  0.429100  1
  H  H59  1  0.817000  -0.270300  0.330800  1
  H  H60  1  0.176700  -0.390200  0.503000  1
  H  H61  1  1.823300  0.390200  0.497000  1
  H  H62  1  1.648700  -0.017300  0.141300  1
  H  H63  1  1.621000  -0.161500  0.210100  1
  H  H64  1  1.349300  0.250400  0.164700  1
  H  H65  1  1.125900  0.126500  0.147000  1
  H  H66  1  1.223900  -0.409900  0.160700  1
  H  H67  1  1.217100  -0.304900  0.081400  1
  H  H68  1  1.663400  0.097400  0.304400  1
  H  H69  1  1.852800  0.128900  0.250700  1
  H  H70  1  1.690100  0.242100  0.235500  1
  H  H71  1  1.234100  0.017900  0.022500  1
  H  H72  1  1.241000  0.239300  0.029100  1
  H  H73  1  1.441300  0.175800  0.040100  1
  H  H74  1  0.910400  -0.248600  0.116900  1
  H  H75  1  0.916800  -0.358500  0.195100  1
  H  H76  1  0.897900  -0.640200  0.116300  1
  H  H77  1  0.705800  -0.563700  0.104900  1
  H  H78  1  0.872300  -0.527500  0.040500  1
  S  S79  1  1.606530  0.489400  0.673180  1
  S  S80  1  0.393470  -0.489400  0.326820  1
  Si  Si81  1  0.678620  0.073730  0.811880  1.0
  Si  Si82  1  1.321380  -0.073730  0.188120  1
