# generated using pymatgen
data_SiH27C19O
_symmetry_space_group_name_H-M   'P 1'
_cell_length_a   11.19800000
_cell_length_b   13.52800000
_cell_length_c   12.15200000
_cell_angle_alpha   90.00000000
_cell_angle_beta   99.76000000
_cell_angle_gamma   90.00000000
_symmetry_Int_Tables_number   1
_chemical_formula_structural   SiH27C19O
_chemical_formula_sum   'Si4 H108 C76 O4'
_cell_volume   1814.22070664
_cell_formula_units_Z   4
loop_
 _symmetry_equiv_pos_site_id
 _symmetry_equiv_pos_as_xyz
  1  'x, y, z'
loop_
 _atom_site_type_symbol
 _atom_site_label
 _atom_site_symmetry_multiplicity
 _atom_site_fract_x
 _atom_site_fract_y
 _atom_site_fract_z
 _atom_site_occupancy
  C  C1  1  0.260100  0.278440  0.408510  1
  C  C2  1  0.136430  0.174730  0.203150  1
  C  C3  1  0.206620  0.059810  0.429320  1
  C  C4  1  0.002820  0.219010  0.400240  1
  C  C5  1  0.331780  0.344000  0.436940  1
  C  C6  1  0.075400  0.268380  0.149100  1
  C  C7  1  0.258990  0.158560  0.166120  1
  C  C8  1  0.343760  0.051920  0.463700  1
  C  C9  1  0.157640  -0.030990  0.359630  1
  C  C10  1  -0.100050  0.144580  0.363410  1
  C  C11  1  0.016000  0.241210  0.524740  1
  C  C12  1  0.416770  0.422200  0.469390  1
  C  C13  1  0.389430  0.496290  0.544010  1
  C  C14  1  0.525830  0.425210  0.425950  1
  C  C15  1  0.280880  0.493440  0.590740  1
  C  C16  1  0.474170  0.574790  0.574050  1
  C  C17  1  0.610570  0.503710  0.455990  1
  C  C18  1  0.555880  0.350780  0.351770  1
  C  C19  1  0.257740  0.564990  0.663260  1
  C  C20  1  0.583230  0.577800  0.530610  1
  C  C21  1  0.444120  0.649220  0.648230  1
  C  C22  1  0.719120  0.506560  0.409260  1
  C  C23  1  0.659920  0.355380  0.309100  1
  C  C24  1  0.340080  0.644620  0.690900  1
  C  C25  1  0.668220  0.656000  0.563060  1
  C  C26  1  0.742260  0.435010  0.336740  1
  C  C27  1  0.073400  0.490630  0.694700  1
  C  C28  1  0.739900  0.721560  0.591490  1
  C  C29  1  0.926600  0.509370  0.305300  1
  C  C30  1  0.863570  0.825270  0.796850  1
  C  C31  1  0.793380  0.940190  0.570680  1
  C  C32  1  0.997180  0.780990  0.599760  1
  C  C33  1  0.924600  0.731620  0.850900  1
  C  C34  1  0.741010  0.841440  0.833880  1
  C  C35  1  0.656240  0.948080  0.536300  1
  C  C36  1  0.842360  1.030990  0.640370  1
  C  C37  1  1.100050  0.855420  0.636590  1
  C  C38  1  0.984000  0.758790  0.475260  1
  C  C39  1  1.239900  -0.221560  1.091490  1
  C  C40  1  1.363570  -0.325270  1.296850  1
  C  C41  1  1.293380  -0.440190  1.070680  1
  C  C42  1  1.497180  -0.280990  1.099760  1
  C  C43  1  1.168220  -0.156000  1.063060  1
  C  C44  1  1.424600  -0.231620  1.350900  1
  C  C45  1  1.241010  -0.341440  1.333880  1
  C  C46  1  1.156240  -0.448080  1.036300  1
  C  C47  1  1.342360  -0.530990  1.140370  1
  C  C48  1  1.600050  -0.355420  1.136590  1
  C  C49  1  1.484000  -0.258790  0.975260  1
  C  C50  1  1.083230  -0.077800  1.030610  1
  C  C51  1  1.110570  -0.003710  0.955990  1
  C  C52  1  0.974170  -0.074790  1.074050  1
  C  C53  1  1.219120  -0.006560  0.909260  1
  C  C54  1  1.025830  0.074790  0.925950  1
  C  C55  1  0.889430  0.003710  1.044010  1
  C  C56  1  0.944120  -0.149220  1.148230  1
  C  C57  1  1.242260  0.064990  0.836740  1
  C  C58  1  0.916770  0.077800  0.969390  1
  C  C59  1  1.055880  0.149220  0.851770  1
  C  C60  1  0.780880  0.006560  1.090740  1
  C  C61  1  0.840080  -0.144620  1.190900  1
  C  C62  1  1.159920  0.144620  0.809100  1
  C  C63  1  0.831780  0.156000  0.936940  1
  C  C64  1  0.757740  -0.064990  1.163260  1
  C  C65  1  1.426600  -0.009370  0.805300  1
  C  C66  1  0.760100  0.221560  0.908510  1
  C  C67  1  0.573400  0.009370  1.194700  1
  C  C68  1  0.636430  0.325270  0.703150  1
  C  C69  1  0.706620  0.440190  0.929320  1
  C  C70  1  0.502820  0.280990  0.900240  1
  C  C71  1  0.575400  0.231620  0.649100  1
  C  C72  1  0.758990  0.341440  0.666120  1
  C  C73  1  0.843760  0.448080  0.963700  1
  C  C74  1  0.657640  0.530990  0.859630  1
  C  C75  1  0.399950  0.355420  0.863410  1
  C  C76  1  0.516000  0.258790  1.024740  1
  H  H77  1  0.083400  0.117300  0.175800  1
  H  H78  1  0.172100  0.056200  0.499900  1
  H  H79  1  -0.021200  0.282200  0.359800  1
  H  H80  1  0.121700  0.326600  0.179500  1
  H  H81  1  -0.007300  0.272800  0.165100  1
  H  H82  1  0.072800  0.265600  0.068100  1
  H  H83  1  0.247600  0.156200  0.084400  1
  H  H84  1  0.294200  0.096100  0.196900  1
  H  H85  1  0.313700  0.213100  0.193300  1
  H  H86  1  0.364100  -0.010800  0.502600  1
  H  H87  1  0.373200  0.106900  0.513400  1
  H  H88  1  0.382100  0.054600  0.397000  1
  H  H89  1  0.190600  -0.031800  0.289900  1
  H  H90  1  0.069000  -0.027700  0.342500  1
  H  H91  1  0.182200  -0.091400  0.402100  1
  H  H92  1  -0.080000  0.081400  0.401400  1
  H  H93  1  -0.110100  0.134800  0.282500  1
  H  H94  1  -0.175600  0.170200  0.382900  1
  H  H95  1  -0.059000  0.271100  0.540500  1
  H  H96  1  0.083500  0.287100  0.546500  1
  H  H97  1  0.031800  0.179600  0.567200  1
  H  H98  1  0.224400  0.441300  0.571200  1
  H  H99  1  0.501900  0.297100  0.332000  1
  H  H100  1  0.498100  0.702900  0.668000  1
  H  H101  1  0.775600  0.558700  0.428800  1
  H  H102  1  0.678000  0.304800  0.260200  1
  H  H103  1  0.322000  0.695200  0.739800  1
  H  H104  1  0.040800  0.487900  0.614600  1
  H  H105  1  0.007200  0.502400  0.736500  1
  H  H106  1  0.113000  0.427700  0.718400  1
  H  H107  1  0.959200  0.512100  0.385400  1
  H  H108  1  0.992800  0.497600  0.263500  1
  H  H109  1  0.887000  0.572300  0.281600  1
  H  H110  1  0.916600  0.882700  0.824200  1
  H  H111  1  0.827900  0.943800  0.500100  1
  H  H112  1  1.021200  0.717800  0.640200  1
  H  H113  1  0.878300  0.673400  0.820500  1
  H  H114  1  1.007300  0.727200  0.834900  1
  H  H115  1  0.927200  0.734400  0.931900  1
  H  H116  1  0.752400  0.843800  0.915600  1
  H  H117  1  0.705800  0.903900  0.803100  1
  H  H118  1  0.686300  0.786900  0.806700  1
  H  H119  1  0.635900  1.010800  0.497400  1
  H  H120  1  0.626800  0.893100  0.486600  1
  H  H121  1  0.617900  0.945400  0.603000  1
  H  H122  1  0.809400  1.031800  0.710100  1
  H  H123  1  0.931000  1.027700  0.657500  1
  H  H124  1  0.817800  1.091400  0.597900  1
  H  H125  1  1.080000  0.918600  0.598600  1
  H  H126  1  1.110100  0.865200  0.717500  1
  H  H127  1  1.175600  0.829800  0.617100  1
  H  H128  1  1.059000  0.728900  0.459500  1
  H  H129  1  0.916500  0.712900  0.453500  1
  H  H130  1  0.968200  0.820400  0.432800  1
  H  H131  1  1.416600  -0.382700  1.324200  1
  H  H132  1  1.327900  -0.443800  1.000100  1
  H  H133  1  1.521200  -0.217800  1.140200  1
  H  H134  1  1.378300  -0.173400  1.320500  1
  H  H135  1  1.507300  -0.227200  1.334900  1
  H  H136  1  1.427200  -0.234400  1.431900  1
  H  H137  1  1.252400  -0.343800  1.415600  1
  H  H138  1  1.205800  -0.403900  1.303100  1
  H  H139  1  1.186300  -0.286900  1.306700  1
  H  H140  1  1.135900  -0.510800  0.997400  1
  H  H141  1  1.126800  -0.393100  0.986600  1
  H  H142  1  1.117900  -0.445400  1.103000  1
  H  H143  1  1.309400  -0.531800  1.210100  1
  H  H144  1  1.431000  -0.527700  1.157500  1
  H  H145  1  1.317800  -0.591400  1.097900  1
  H  H146  1  1.580000  -0.418600  1.098600  1
  H  H147  1  1.610100  -0.365200  1.217500  1
  H  H148  1  1.675600  -0.329800  1.117100  1
  H  H149  1  1.559000  -0.228900  0.959500  1
  H  H150  1  1.416500  -0.212900  0.953500  1
  H  H151  1  1.468200  -0.320400  0.932800  1
  H  H152  1  1.275600  -0.058700  0.928800  1
  H  H153  1  0.998100  -0.202900  1.168000  1
  H  H154  1  1.001900  0.202900  0.832000  1
  H  H155  1  0.724400  0.058700  1.071200  1
  H  H156  1  0.822000  -0.195200  1.239800  1
  H  H157  1  1.178000  0.195200  0.760200  1
  H  H158  1  1.459200  -0.012100  0.885400  1
  H  H159  1  1.492800  0.002400  0.763500  1
  H  H160  1  1.387000  -0.072300  0.781600  1
  H  H161  1  0.540800  0.012100  1.114600  1
  H  H162  1  0.507200  -0.002400  1.236500  1
  H  H163  1  0.613000  0.072300  1.218400  1
  H  H164  1  0.583400  0.382700  0.675800  1
  H  H165  1  0.672100  0.443800  0.999900  1
  H  H166  1  0.478800  0.217800  0.859800  1
  H  H167  1  0.621700  0.173400  0.679500  1
  H  H168  1  0.492700  0.227200  0.665100  1
  H  H169  1  0.572800  0.234400  0.568100  1
  H  H170  1  0.747600  0.343800  0.584400  1
  H  H171  1  0.794200  0.403900  0.696900  1
  H  H172  1  0.813700  0.286900  0.693300  1
  H  H173  1  0.864100  0.510800  1.002600  1
  H  H174  1  0.873200  0.393100  1.013400  1
  H  H175  1  0.882100  0.445400  0.897000  1
  H  H176  1  0.690600  0.531800  0.789900  1
  H  H177  1  0.569000  0.527700  0.842500  1
  H  H178  1  0.682200  0.591400  0.902100  1
  H  H179  1  0.420000  0.418600  0.901400  1
  H  H180  1  0.389900  0.365200  0.782500  1
  H  H181  1  0.324400  0.329800  0.882900  1
  H  H182  1  0.441000  0.228900  1.040500  1
  H  H183  1  0.583500  0.212900  1.046500  1
  H  H184  1  0.531800  0.320400  1.067200  1
  O  O185  1  0.159400  0.568910  0.715860  1
  O  O186  1  0.840600  0.431090  0.284140  1
  O  O187  1  1.340600  0.068910  0.784140  1
  O  O188  1  0.659400  -0.068910  1.215860  1
  Si  Si189  1  0.150620  0.179040  0.359660  1.0
  Si  Si190  1  0.849380  0.820960  0.640340  1
  Si  Si191  1  1.349380  -0.320960  1.140340  1.0
  Si  Si192  1  0.650620  0.320960  0.859660  1
