# generated using pymatgen
data_SiH18C17SF
_symmetry_space_group_name_H-M   'P 1'
_cell_length_a   7.11530000
_cell_length_b   7.23420000
_cell_length_c   16.62600000
_cell_angle_alpha   97.52200000
_cell_angle_beta   91.36100000
_cell_angle_gamma   107.49100000
_symmetry_Int_Tables_number   1
_chemical_formula_structural   SiH18C17SF
_chemical_formula_sum   'Si2 H36 C34 S2 F2'
_cell_volume   807.40235048
_cell_formula_units_Z   2
loop_
 _symmetry_equiv_pos_site_id
 _symmetry_equiv_pos_as_xyz
  1  'x, y, z'
loop_
 _atom_site_type_symbol
 _atom_site_label
 _atom_site_symmetry_multiplicity
 _atom_site_fract_x
 _atom_site_fract_y
 _atom_site_fract_z
 _atom_site_occupancy
  C  C1  1  0.191200  0.905100  0.778800  1
  C  C2  1  0.541300  0.916000  0.684000  1
  C  C3  1  0.140000  0.634000  0.623200  1
  C  C4  1  0.219000  1.084400  0.629300  1
  C  C5  1  0.135900  0.929500  0.845400  1
  C  C6  1  0.667000  1.094000  0.737100  1
  C  C7  1  -0.070000  0.573000  0.625300  1
  C  C8  1  0.290000  1.106000  0.545700  1
  C  C9  1  0.067000  0.960700  0.923800  1
  C  C10  1  -0.130000  0.869900  0.936600  1
  C  C11  1  0.200400  1.090400  0.986100  1
  C  C12  1  -0.261500  0.740200  0.875800  1
  C  C13  1  -0.200400  0.909600  1.013900  1
  C  C14  1  0.130000  1.130100  1.063400  1
  C  C15  1  0.400700  1.171800  0.973800  1
  C  C16  1  -0.450600  0.659400  0.889600  1
  C  C17  1  -0.067000  1.039300  1.076200  1
  C  C18  1  -0.400700  0.828200  1.026200  1
  C  C19  1  0.261500  1.259800  1.124200  1
  C  C20  1  0.521500  1.296900  1.034300  1
  C  C21  1  -0.521500  0.703100  0.965700  1
  C  C22  1  -0.135900  1.070500  1.154600  1
  C  C23  1  0.450600  1.340600  1.110400  1
  C  C24  1  0.729000  1.383000  1.036200  1
  C  C25  1  -0.729000  0.617000  0.963800  1
  C  C26  1  -0.798600  0.493000  0.896300  1
  C  C27  1  -0.191200  1.094900  1.221200  1
  C  C28  1  0.798600  1.507000  1.103700  1
  C  C29  1  -0.541300  1.084000  1.316000  1
  C  C30  1  -0.140000  1.366000  1.376800  1
  C  C31  1  -0.219000  0.915600  1.370700  1
  C  C32  1  -0.667000  0.906000  1.262900  1
  C  C33  1  0.070000  1.427000  1.374700  1
  C  C34  1  -0.290000  0.894000  1.454300  1
  F  F35  1  -0.983500  0.388500  0.874400  1
  F  F36  1  0.983500  1.611500  1.125600  1
  H  H37  1  0.559700  0.801800  0.703900  1
  H  H38  1  0.588100  0.917200  0.629600  1
  H  H39  1  0.172100  0.626600  0.566800  1
  H  H40  1  0.189100  0.540400  0.647100  1
  H  H41  1  0.077100  1.059600  0.626400  1
  H  H42  1  0.277800  1.207700  0.664500  1
  H  H43  1  0.648900  1.208600  0.718900  1
  H  H44  1  0.803400  1.099600  0.734400  1
  H  H45  1  0.630800  1.089500  0.792100  1
  H  H46  1  -0.105600  0.555700  0.679800  1
  H  H47  1  -0.125900  0.451900  0.589700  1
  H  H48  1  -0.120600  0.671600  0.607800  1
  H  H49  1  0.429600  1.170600  0.549800  1
  H  H50  1  0.223200  1.182100  0.520000  1
  H  H51  1  0.261900  0.978700  0.514100  1
  H  H52  1  -0.216600  0.709800  0.825200  1
  H  H53  1  0.450100  1.140000  0.924400  1
  H  H54  1  -0.450100  0.860000  1.075600  1
  H  H55  1  0.216600  1.290200  1.174800  1
  H  H56  1  0.806900  1.356400  0.994800  1
  H  H57  1  -0.806900  0.643600  1.005200  1
  H  H58  1  -0.559700  1.198200  1.296100  1
  H  H59  1  -0.588100  1.082800  1.370400  1
  H  H60  1  -0.172100  1.373400  1.433200  1
  H  H61  1  -0.189100  1.459600  1.352900  1
  H  H62  1  -0.077100  0.940400  1.373600  1
  H  H63  1  -0.277800  0.792300  1.335500  1
  H  H64  1  -0.648900  0.791400  1.281100  1
  H  H65  1  -0.803400  0.900400  1.265600  1
  H  H66  1  -0.630800  0.910500  1.207900  1
  H  H67  1  0.105600  1.444300  1.320200  1
  H  H68  1  0.125900  1.548100  1.410300  1
  H  H69  1  0.120600  1.328400  1.392200  1
  H  H70  1  -0.429600  0.829400  1.450200  1
  H  H71  1  -0.223200  0.817900  1.480000  1
  H  H72  1  -0.261900  1.021300  1.485900  1
  S  S73  1  -0.630800  0.492700  0.821600  1
  S  S74  1  0.630800  1.507300  1.178400  1
  Si  Si75  1  0.275700  0.886100  0.676690  1.0
  Si  Si76  1  -0.275700  1.113900  1.323310  1
