# generated using pymatgen
data_SiH22C27SF
_symmetry_space_group_name_H-M   'P 1'
_cell_length_a   8.39670000
_cell_length_b   8.74410000
_cell_length_c   16.68260000
_cell_angle_alpha   91.93600000
_cell_angle_beta   103.44700000
_cell_angle_gamma   109.80700000
_symmetry_Int_Tables_number   1
_chemical_formula_structural   SiH22C27SF
_chemical_formula_sum   'Si2 H44 C54 S2 F2'
_cell_volume   1112.29136682
_cell_formula_units_Z   2
loop_
 _symmetry_equiv_pos_site_id
 _symmetry_equiv_pos_as_xyz
  1  'x, y, z'
loop_
 _atom_site_type_symbol
 _atom_site_label
 _atom_site_symmetry_multiplicity
 _atom_site_fract_x
 _atom_site_fract_y
 _atom_site_fract_z
 _atom_site_occupancy
  C  C1  1  0.493100  0.760700  0.703550  1
  C  C2  1  0.446100  1.048700  0.785690  1
  C  C3  1  0.288200  0.704400  0.828920  1
  C  C4  1  0.704200  0.892500  0.879870  1
  C  C5  1  0.494600  0.687300  0.641030  1
  C  C6  1  0.527600  1.157300  0.735750  1
  C  C7  1  0.330000  1.088800  0.822870  1
  C  C8  1  0.284100  0.646900  0.905720  1
  C  C9  1  0.132100  0.647500  0.765570  1
  C  C10  1  0.850600  0.990000  0.841120  1
  C  C11  1  0.715600  0.996100  0.958560  1
  C  C12  1  0.730100  0.732500  0.901240  1
  C  C13  1  0.496300  0.594100  0.569430  1
  C  C14  1  0.494400  1.300600  0.723410  1
  C  C15  1  0.299100  1.234100  0.811110  1
  C  C16  1  0.131400  0.535600  0.918380  1
  C  C17  1  -0.020200  0.536700  0.778480  1
  C  C18  1  0.343000  0.462400  0.527060  1
  C  C19  1  0.652900  0.633600  0.543650  1
  C  C20  1  0.381300  1.339400  0.761270  1
  C  C21  1  -0.020700  0.480700  0.855130  1
  C  C22  1  0.186600  0.420400  0.553950  1
  C  C23  1  0.347100  0.366400  0.456350  1
  C  C24  1  0.657000  0.537600  0.472940  1
  C  C25  1  0.805900  0.767100  0.585410  1
  C  C26  1  0.042800  0.290200  0.513020  1
  C  C27  1  0.503700  0.405900  0.430570  1
  C  C28  1  0.194100  0.232900  0.414590  1
  C  C29  1  0.813400  0.579600  0.446050  1
  C  C30  1  0.954400  0.806000  0.557630  1
  C  C31  1  0.045600  0.194000  0.442370  1
  C  C32  1  0.505400  0.312700  0.358970  1
  C  C33  1  0.957200  0.709800  0.486980  1
  C  C34  1  1.121500  0.937600  0.586500  1
  C  C35  1  -0.121500  0.062400  0.413500  1
  C  C36  1  -0.237000  0.058100  0.458000  1
  C  C37  1  0.506900  0.239300  0.296450  1
  C  C38  1  1.237000  0.941900  0.542000  1
  C  C39  1  0.553900  -0.048700  0.214310  1
  C  C40  1  0.711800  0.295600  0.171080  1
  C  C41  1  0.295800  0.107500  0.120130  1
  C  C42  1  0.472400  -0.157300  0.264250  1
  C  C43  1  0.670000  -0.088800  0.177130  1
  C  C44  1  0.715900  0.353100  0.094280  1
  C  C45  1  0.867900  0.352500  0.234430  1
  C  C46  1  0.149400  0.010000  0.158880  1
  C  C47  1  0.284400  0.003900  0.041440  1
  C  C48  1  0.269900  0.267500  0.098760  1
  C  C49  1  0.505600  -0.300600  0.276590  1
  C  C50  1  0.700900  -0.234100  0.188890  1
  C  C51  1  0.868600  0.464400  0.081620  1
  C  C52  1  1.020200  0.463300  0.221520  1
  C  C53  1  0.618700  -0.339400  0.238730  1
  C  C54  1  1.020700  0.519300  0.144870  1
  F  F55  1  -0.400100  -0.052100  0.448900  1
  F  F56  1  1.400100  1.052100  0.551100  1
  H  H57  1  0.607100  1.132700  0.709900  1
  H  H58  1  0.271500  1.016000  0.856600  1
  H  H59  1  0.387600  0.684500  0.950100  1
  H  H60  1  0.130500  0.685400  0.712800  1
  H  H61  1  0.963900  1.021000  0.882400  1
  H  H62  1  0.830500  1.088900  0.823100  1
  H  H63  1  0.850900  0.922300  0.793200  1
  H  H64  1  0.620800  0.936900  0.983300  1
  H  H65  1  0.704500  1.100400  0.944100  1
  H  H66  1  0.828900  1.017300  0.998500  1
  H  H67  1  0.716100  0.665300  0.850100  1
  H  H68  1  0.642900  0.672700  0.930000  1
  H  H69  1  0.848100  0.756900  0.937400  1
  H  H70  1  0.550000  1.372600  0.688600  1
  H  H71  1  0.221400  1.260700  0.837400  1
  H  H72  1  0.131900  0.497200  0.971000  1
  H  H73  1  -0.124600  0.499200  0.734600  1
  H  H74  1  0.359900  1.438400  0.753100  1
  H  H75  1  -0.125100  0.405000  0.864000  1
  H  H76  1  0.182400  0.483100  0.600500  1
  H  H77  1  0.805400  0.829800  0.632900  1
  H  H78  1  0.194600  0.170200  0.367100  1
  H  H79  1  0.817600  0.516900  0.399500  1
  H  H80  1  1.147900  1.015200  0.633400  1
  H  H81  1  -0.147900  -0.015200  0.366600  1
  H  H82  1  0.392900  -0.132700  0.290100  1
  H  H83  1  0.728500  -0.016000  0.143400  1
  H  H84  1  0.612400  0.315500  0.049900  1
  H  H85  1  0.869500  0.314600  0.287200  1
  H  H86  1  0.036100  -0.021000  0.117600  1
  H  H87  1  0.169500  -0.088900  0.176900  1
  H  H88  1  0.149100  0.077700  0.206800  1
  H  H89  1  0.379200  0.063100  0.016700  1
  H  H90  1  0.295500  -0.100400  0.055900  1
  H  H91  1  0.171100  -0.017300  0.001500  1
  H  H92  1  0.283900  0.334700  0.149900  1
  H  H93  1  0.357100  0.327300  0.070000  1
  H  H94  1  0.151900  0.243100  0.062600  1
  H  H95  1  0.450000  -0.372600  0.311400  1
  H  H96  1  0.778600  -0.260700  0.162600  1
  H  H97  1  0.868100  0.502800  0.029000  1
  H  H98  1  1.124600  0.500800  0.265400  1
  H  H99  1  0.640100  -0.438400  0.246900  1
  H  H100  1  1.125100  0.595000  0.136000  1
  S  S101  1  -0.161460  0.212680  0.542230  1
  S  S102  1  1.161460  0.787320  0.457770  1
  Si  Si103  1  0.485300  0.852550  0.802420  1.0
  Si  Si104  1  0.514700  0.147450  0.197580  1
