# generated using pymatgen
data_SiH18C18SF
_symmetry_space_group_name_H-M   'P 1'
_cell_length_a   6.23890000
_cell_length_b   8.45940000
_cell_length_c   15.36380000
_cell_angle_alpha   78.96900000
_cell_angle_beta   86.03900000
_cell_angle_gamma   82.59900000
_symmetry_Int_Tables_number   1
_chemical_formula_structural   SiH18C18SF
_chemical_formula_sum   'Si2 H36 C36 S2 F2'
_cell_volume   788.42581417
_cell_formula_units_Z   2
loop_
 _symmetry_equiv_pos_site_id
 _symmetry_equiv_pos_as_xyz
  1  'x, y, z'
loop_
 _atom_site_type_symbol
 _atom_site_label
 _atom_site_symmetry_multiplicity
 _atom_site_fract_x
 _atom_site_fract_y
 _atom_site_fract_z
 _atom_site_occupancy
  C  C1  1  0.785600  0.468350  0.732830  1
  C  C2  1  0.803800  0.245250  0.910230  1
  C  C3  1  1.201000  0.374850  0.829510  1
  C  C4  1  0.829300  0.616950  0.894360  1
  C  C5  1  0.704700  0.481960  0.662270  1
  C  C6  1  0.900600  0.094880  0.871580  1
  C  C7  1  1.248200  0.208700  0.800110  1
  C  C8  1  0.593800  0.693100  0.885240  1
  C  C9  1  0.604200  0.493540  0.579950  1
  C  C10  1  1.148900  0.073460  0.864280  1
  C  C11  1  0.402200  0.589550  0.564970  1
  C  C12  1  0.705500  0.405530  0.515630  1
  C  C13  1  0.305000  0.683710  0.627810  1
  C  C14  1  0.294500  0.594470  0.484370  1
  C  C15  1  0.597800  0.410450  0.435030  1
  C  C16  1  0.911900  0.314240  0.528580  1
  C  C17  1  0.107600  0.771970  0.612330  1
  C  C18  1  0.395800  0.506460  0.420050  1
  C  C19  1  0.088100  0.685760  0.471420  1
  C  C20  1  0.695000  0.316290  0.372190  1
  C  C21  1  1.005500  0.228990  0.465710  1
  C  C22  1  -0.005500  0.771010  0.534290  1
  C  C23  1  0.295300  0.518040  0.337730  1
  C  C24  1  0.892400  0.228030  0.387670  1
  C  C25  1  1.214800  0.131300  0.463100  1
  C  C26  1  -0.214800  0.868700  0.536900  1
  C  C27  1  -0.245000  0.934800  0.607900  1
  C  C28  1  0.214400  0.531650  0.267170  1
  C  C29  1  1.245000  0.065200  0.392100  1
  C  C30  1  0.196200  0.754750  0.089770  1
  C  C31  1  -0.201000  0.625150  0.170490  1
  C  C32  1  0.170700  0.383050  0.105640  1
  C  C33  1  0.099400  0.905120  0.128420  1
  C  C34  1  -0.248200  0.791300  0.199890  1
  C  C35  1  0.406200  0.306900  0.114760  1
  C  C36  1  -0.148900  0.926540  0.135720  1
  F  F37  1  -0.420500  1.030620  0.630520  1
  F  F38  1  1.420500  -0.030620  0.369480  1
  H  H39  1  0.845900  0.232400  0.972400  1
  H  H40  1  0.643900  0.255600  0.910200  1
  H  H41  1  1.264500  0.458400  0.784600  1
  H  H42  1  1.268800  0.369400  0.886600  1
  H  H43  1  0.858900  0.587300  0.958300  1
  H  H44  1  0.924700  0.699600  0.867000  1
  H  H45  1  0.850900  -0.003000  0.909700  1
  H  H46  1  0.844900  0.103700  0.811800  1
  H  H47  1  1.190800  0.217900  0.740600  1
  H  H48  1  1.406800  0.179400  0.795000  1
  H  H49  1  0.566100  0.732800  0.822300  1
  H  H50  1  0.567400  0.783800  0.917400  1
  H  H51  1  0.497300  0.611500  0.910100  1
  H  H52  1  1.204000  0.066800  0.923900  1
  H  H53  1  1.198600  -0.030900  0.845000  1
  H  H54  1  0.376800  0.685200  0.680100  1
  H  H55  1  0.985300  0.312300  0.581000  1
  H  H56  1  0.014700  0.687700  0.419000  1
  H  H57  1  0.623200  0.314800  0.319900  1
  H  H58  1  1.317500  0.117200  0.507600  1
  H  H59  1  -0.317500  0.882800  0.492400  1
  H  H60  1  0.154100  0.767600  0.027600  1
  H  H61  1  0.356100  0.744400  0.089800  1
  H  H62  1  -0.264500  0.541600  0.215400  1
  H  H63  1  -0.268800  0.630600  0.113400  1
  H  H64  1  0.141100  0.412700  0.041700  1
  H  H65  1  0.075300  0.300400  0.133000  1
  H  H66  1  0.149100  1.003000  0.090300  1
  H  H67  1  0.155100  0.896300  0.188200  1
  H  H68  1  -0.190800  0.782100  0.259400  1
  H  H69  1  -0.406800  0.820600  0.205000  1
  H  H70  1  0.433900  0.267200  0.177700  1
  H  H71  1  0.432600  0.216200  0.082600  1
  H  H72  1  0.502700  0.388500  0.089900  1
  H  H73  1  -0.204000  0.933200  0.076100  1
  H  H74  1  -0.198600  1.030900  0.155000  1
  S  S75  1  -0.034550  0.893780  0.681360  1
  S  S76  1  1.034550  0.106220  0.318640  1
  Si  Si77  1  0.903060  0.432490  0.842770  1.0
  Si  Si78  1  0.096940  0.567510  0.157230  1
