# generated using pymatgen
data_SiH18C16N
_symmetry_space_group_name_H-M   'P 1'
_cell_length_a   15.63260000
_cell_length_b   6.42030000
_cell_length_c   14.87830000
_cell_angle_alpha   90.00000000
_cell_angle_beta   100.51580000
_cell_angle_gamma   90.00000000
_symmetry_Int_Tables_number   1
_chemical_formula_structural   SiH18C16N
_chemical_formula_sum   'Si4 H72 C64 N4'
_cell_volume   1468.19505735
_cell_formula_units_Z   4
loop_
 _symmetry_equiv_pos_site_id
 _symmetry_equiv_pos_as_xyz
  1  'x, y, z'
loop_
 _atom_site_type_symbol
 _atom_site_label
 _atom_site_symmetry_multiplicity
 _atom_site_fract_x
 _atom_site_fract_y
 _atom_site_fract_z
 _atom_site_occupancy
  C  C1  1  0.266070  0.766200  0.392100  1
  C  C2  1  0.107500  0.717800  0.247900  1
  C  C3  1  0.172700  1.143000  0.314100  1
  C  C4  1  0.095800  0.885000  0.435500  1
  C  C5  1  0.336800  0.694800  0.423950  1
  C  C6  1  0.224000  1.179700  0.251000  1
  C  C7  1  0.100400  0.769000  0.497500  1
  C  C8  1  0.418530  0.603700  0.461810  1
  C  C9  1  0.499120  0.681200  0.449970  1
  C  C10  1  0.420290  0.419500  0.513750  1
  C  C11  1  0.579710  0.580500  0.486250  1
  C  C12  1  0.500880  0.318800  0.550030  1
  C  C13  1  0.352760  0.301300  0.540050  1
  C  C14  1  0.581470  0.396300  0.538190  1
  C  C15  1  0.647240  0.698700  0.459950  1
  C  C16  1  0.466380  1.016500  0.363460  1
  C  C17  1  0.610820  0.867700  0.410810  1
  C  C18  1  0.389180  0.132300  0.589190  1
  C  C19  1  0.663200  0.305200  0.576050  1
  C  C20  1  0.500220  1.175700  0.322910  1
  C  C21  1  0.644220  1.037300  0.367430  1
  C  C22  1  0.533620  -0.016500  0.636540  1
  C  C23  1  0.355780  -0.037300  0.632570  1
  C  C24  1  0.733930  0.233800  0.607900  1
  C  C25  1  0.591300  1.185700  0.324520  1
  C  C26  1  0.499780  -0.175700  0.677090  1
  C  C27  1  0.408700  -0.185700  0.675480  1
  C  C28  1  0.892500  0.282200  0.752100  1
  C  C29  1  0.827300  -0.143000  0.685900  1
  C  C30  1  0.904200  0.115000  0.564500  1
  C  C31  1  0.776000  -0.179700  0.749000  1
  C  C32  1  0.899600  0.231000  0.502500  1
  C  C33  1  0.733930  0.266200  0.107900  1
  C  C34  1  0.892500  0.217800  0.252100  1
  C  C35  1  0.827300  0.643000  0.185900  1
  C  C36  1  0.904200  0.385000  0.064500  1
  C  C37  1  0.663200  0.194800  0.076050  1
  C  C38  1  0.776000  0.679700  0.249000  1
  C  C39  1  0.899600  0.269000  0.002500  1
  C  C40  1  0.581470  0.103700  0.038190  1
  C  C41  1  0.500880  0.181200  0.050030  1
  C  C42  1  0.579710  -0.080500  -0.013750  1
  C  C43  1  0.420290  0.080500  0.013750  1
  C  C44  1  0.499120  -0.181200  -0.050030  1
  C  C45  1  0.647240  -0.198700  -0.040050  1
  C  C46  1  0.418530  -0.103700  -0.038190  1
  C  C47  1  0.352760  0.198700  0.040050  1
  C  C48  1  0.533620  0.516500  0.136540  1
  C  C49  1  0.389180  0.367700  0.089190  1
  C  C50  1  0.610820  -0.367700  -0.089190  1
  C  C51  1  0.336800  -0.194800  -0.076050  1
  C  C52  1  0.499780  0.675700  0.177090  1
  C  C53  1  0.355780  0.537300  0.132570  1
  C  C54  1  0.466380  -0.516500  -0.136540  1
  C  C55  1  0.644220  -0.537300  -0.132570  1
  C  C56  1  0.266070  -0.266200  -0.107900  1
  C  C57  1  0.408700  0.685700  0.175480  1
  C  C58  1  0.500220  -0.675700  -0.177090  1
  C  C59  1  0.591300  -0.685700  -0.175480  1
  C  C60  1  0.107500  -0.217800  -0.252100  1
  C  C61  1  0.172700  -0.643000  -0.185900  1
  C  C62  1  0.095800  -0.385000  -0.064500  1
  C  C63  1  0.224000  -0.679700  -0.249000  1
  C  C64  1  0.100400  -0.269000  -0.002500  1
  H  H65  1  0.048900  0.769100  0.226800  1
  H  H66  1  0.105000  0.575000  0.268600  1
  H  H67  1  0.139800  0.723300  0.198100  1
  H  H68  1  0.114800  1.201000  0.291200  1
  H  H69  1  0.197100  1.217800  0.370400  1
  H  H70  1  0.106000  1.024000  0.463000  1
  H  H71  1  0.034700  0.883200  0.404900  1
  H  H72  1  0.226800  1.328400  0.240300  1
  H  H73  1  0.282100  1.126800  0.273500  1
  H  H74  1  0.199700  1.110100  0.194200  1
  H  H75  1  0.059200  0.809700  0.535700  1
  H  H76  1  0.086800  0.628800  0.474500  1
  H  H77  1  0.158900  0.771300  0.533200  1
  H  H78  1  0.293100  0.332900  0.526300  1
  H  H79  1  0.706900  0.667100  0.473700  1
  H  H80  1  0.406300  1.011800  0.363400  1
  H  H81  1  0.463600  1.280700  0.293400  1
  H  H82  1  0.704400  1.046400  0.368600  1
  H  H83  1  0.593700  -0.011800  0.636600  1
  H  H84  1  0.295600  -0.046400  0.631400  1
  H  H85  1  0.614600  1.296600  0.295500  1
  H  H86  1  0.536400  -0.280700  0.706600  1
  H  H87  1  0.385400  -0.296600  0.704500  1
  H  H88  1  0.951100  0.230900  0.773200  1
  H  H89  1  0.895000  0.425000  0.731400  1
  H  H90  1  0.860200  0.276700  0.801900  1
  H  H91  1  0.885200  -0.201000  0.708800  1
  H  H92  1  0.802900  -0.217800  0.629600  1
  H  H93  1  0.894000  -0.024000  0.537000  1
  H  H94  1  0.965300  0.116800  0.595100  1
  H  H95  1  0.773200  -0.328400  0.759700  1
  H  H96  1  0.717900  -0.126800  0.726500  1
  H  H97  1  0.800300  -0.110100  0.805800  1
  H  H98  1  0.940800  0.190300  0.464300  1
  H  H99  1  0.913200  0.371200  0.525500  1
  H  H100  1  0.841100  0.228700  0.466800  1
  H  H101  1  0.951100  0.269100  0.273200  1
  H  H102  1  0.895000  0.075000  0.231400  1
  H  H103  1  0.860200  0.223300  0.301900  1
  H  H104  1  0.885200  0.701000  0.208800  1
  H  H105  1  0.802900  0.717800  0.129600  1
  H  H106  1  0.894000  0.524000  0.037000  1
  H  H107  1  0.965300  0.383200  0.095100  1
  H  H108  1  0.773200  0.828400  0.259700  1
  H  H109  1  0.717900  0.626800  0.226500  1
  H  H110  1  0.800300  0.610100  0.305800  1
  H  H111  1  0.940800  0.309700  -0.035700  1
  H  H112  1  0.913200  0.128800  0.025500  1
  H  H113  1  0.841100  0.271300  -0.033200  1
  H  H114  1  0.706900  -0.167100  -0.026300  1
  H  H115  1  0.293100  0.167100  0.026300  1
  H  H116  1  0.593700  0.511800  0.136600  1
  H  H117  1  0.536400  0.780700  0.206600  1
  H  H118  1  0.295600  0.546400  0.131400  1
  H  H119  1  0.406300  -0.511800  -0.136600  1
  H  H120  1  0.704400  -0.546400  -0.131400  1
  H  H121  1  0.385400  0.796600  0.204500  1
  H  H122  1  0.463600  -0.780700  -0.206600  1
  H  H123  1  0.614600  -0.796600  -0.204500  1
  H  H124  1  0.048900  -0.269100  -0.273200  1
  H  H125  1  0.105000  -0.075000  -0.231400  1
  H  H126  1  0.139800  -0.223300  -0.301900  1
  H  H127  1  0.114800  -0.701000  -0.208800  1
  H  H128  1  0.197100  -0.717800  -0.129600  1
  H  H129  1  0.106000  -0.524000  -0.037000  1
  H  H130  1  0.034700  -0.383200  -0.095100  1
  H  H131  1  0.226800  -0.828400  -0.259700  1
  H  H132  1  0.282100  -0.626800  -0.226500  1
  H  H133  1  0.199700  -0.610100  -0.305800  1
  H  H134  1  0.059200  -0.309700  0.035700  1
  H  H135  1  0.086800  -0.128800  -0.025500  1
  H  H136  1  0.158900  -0.271300  0.033200  1
  N  N137  1  0.519700  0.860000  0.405150  1
  N  N138  1  0.480300  0.140000  0.594850  1
  N  N139  1  0.480300  0.360000  0.094850  1
  N  N140  1  0.519700  -0.360000  -0.094850  1
  Si  Si141  1  0.161000  0.877000  0.341100  1.0
  Si  Si142  1  0.839000  0.123000  0.658900  1
  Si  Si143  1  0.839000  0.377000  0.158900  1.0
  Si  Si144  1  0.161000  -0.377000  -0.158900  1
