# generated using pymatgen
data_SiH27C22
_symmetry_space_group_name_H-M   'P 1'
_cell_length_a   7.56500000
_cell_length_b   7.75000000
_cell_length_c   16.83500000
_cell_angle_alpha   89.15000000
_cell_angle_beta   78.42000000
_cell_angle_gamma   83.63000000
_symmetry_Int_Tables_number   1
_chemical_formula_structural   SiH27C22
_chemical_formula_sum   'Si2 H54 C44'
_cell_volume   960.92700710
_cell_formula_units_Z   2
loop_
 _symmetry_equiv_pos_site_id
 _symmetry_equiv_pos_as_xyz
  1  'x, y, z'
loop_
 _atom_site_type_symbol
 _atom_site_label
 _atom_site_symmetry_multiplicity
 _atom_site_fract_x
 _atom_site_fract_y
 _atom_site_fract_z
 _atom_site_occupancy
  C  C1  1  0.336500  0.809100  0.225360  1
  C  C2  1  0.318500  0.468400  0.313060  1
  C  C3  1  0.356300  0.804200  0.400560  1
  C  C4  1  -0.006000  0.754700  0.342520  1
  C  C5  1  0.389000  0.870400  0.159760  1
  C  C6  1  0.239100  0.384100  0.247750  1
  C  C7  1  0.525600  0.427900  0.296100  1
  C  C8  1  0.316900  0.719900  0.484080  1
  C  C9  1  0.318000  1.001800  0.408230  1
  C  C10  1  -0.095800  0.661900  0.415300  1
  C  C11  1  -0.083100  0.932800  0.332000  1
  C  C12  1  0.446600  0.938100  0.080030  1
  C  C13  1  0.319900  1.045400  0.044650  1
  C  C14  1  0.626500  0.893100  0.037310  1
  C  C15  1  0.140700  1.092200  0.086080  1
  C  C16  1  0.373500  1.106900  -0.037310  1
  C  C17  1  0.680100  0.954600  -0.044650  1
  C  C18  1  0.756800  0.790800  0.071940  1
  C  C19  1  0.014200  1.193100  0.051410  1
  C  C20  1  0.553400  1.061900  -0.080030  1
  C  C21  1  0.243200  1.209200  -0.071940  1
  C  C22  1  0.859300  0.907800  -0.086080  1
  C  C23  1  0.933300  0.748000  0.030620  1
  C  C24  1  -0.168200  1.239700  0.093520  1
  C  C25  1  0.066700  1.252000  -0.030620  1
  C  C26  1  0.611000  1.129600  -0.159760  1
  C  C27  1  0.985800  0.806900  -0.051410  1
  C  C28  1  1.066900  0.645200  0.065600  1
  C  C29  1  -0.288900  1.337400  0.057750  1
  C  C30  1  -0.066900  1.354800  -0.065600  1
  C  C31  1  0.663500  1.190900  -0.225360  1
  C  C32  1  1.168200  0.760300  -0.093520  1
  C  C33  1  1.237200  0.604900  0.023230  1
  C  C34  1  -0.237200  1.395100  -0.023230  1
  C  C35  1  1.288900  0.662600  -0.057750  1
  C  C36  1  0.681500  1.531600  -0.313060  1
  C  C37  1  0.643700  1.195800  -0.400560  1
  C  C38  1  1.006000  1.245300  -0.342520  1
  C  C39  1  0.760900  1.615900  -0.247750  1
  C  C40  1  0.474400  1.572100  -0.296100  1
  C  C41  1  0.683100  1.280100  -0.484080  1
  C  C42  1  0.682000  0.998200  -0.408230  1
  C  C43  1  1.095800  1.338100  -0.415300  1
  C  C44  1  1.083100  1.067200  -0.332000  1
  H  H45  1  0.269800  0.414800  0.366200  1
  H  H46  1  0.490300  0.779300  0.380300  1
  H  H47  1  -0.038200  0.691600  0.296900  1
  H  H48  1  0.275400  0.441700  0.195700  1
  H  H49  1  0.106400  0.396300  0.263500  1
  H  H50  1  0.285000  0.260600  0.242500  1
  H  H51  1  0.558100  0.302000  0.290600  1
  H  H52  1  0.573200  0.471200  0.341100  1
  H  H53  1  0.578100  0.484400  0.245800  1
  H  H54  1  0.394500  0.761700  0.518100  1
  H  H55  1  0.341900  0.593500  0.478100  1
  H  H56  1  0.189200  0.750700  0.509500  1
  H  H57  1  0.188600  1.033800  0.430300  1
  H  H58  1  0.350800  1.054000  0.354700  1
  H  H59  1  0.390000  1.044200  0.444600  1
  H  H60  1  -0.031700  0.545300  0.417300  1
  H  H61  1  -0.222300  0.652700  0.412100  1
  H  H62  1  -0.092300  0.726700  0.464400  1
  H  H63  1  -0.010600  0.983200  0.284200  1
  H  H64  1  -0.082200  1.001800  0.380200  1
  H  H65  1  -0.208300  0.933000  0.324500  1
  H  H66  1  0.105000  1.053000  0.140000  1
  H  H67  1  0.722200  0.749800  0.125700  1
  H  H68  1  0.277800  1.250200  -0.125700  1
  H  H69  1  0.895000  0.947000  -0.140000  1
  H  H70  1  -0.205300  1.201300  0.147600  1
  H  H71  1  1.035000  0.604800  0.119600  1
  H  H72  1  -0.409200  1.367900  0.087000  1
  H  H73  1  -0.035000  1.395200  -0.119600  1
  H  H74  1  1.205300  0.798700  -0.147600  1
  H  H75  1  1.323800  0.537100  0.047800  1
  H  H76  1  -0.323800  1.462900  -0.047800  1
  H  H77  1  1.409200  0.632100  -0.087000  1
  H  H78  1  0.730200  1.585200  -0.366200  1
  H  H79  1  0.509700  1.220700  -0.380300  1
  H  H80  1  1.038200  1.308400  -0.296900  1
  H  H81  1  0.724600  1.558300  -0.195700  1
  H  H82  1  0.893600  1.603700  -0.263500  1
  H  H83  1  0.715000  1.739400  -0.242500  1
  H  H84  1  0.441900  1.698000  -0.290600  1
  H  H85  1  0.426800  1.528800  -0.341100  1
  H  H86  1  0.421900  1.515600  -0.245800  1
  H  H87  1  0.605500  1.238300  -0.518100  1
  H  H88  1  0.658100  1.406500  -0.478100  1
  H  H89  1  0.810800  1.249300  -0.509500  1
  H  H90  1  0.811400  0.966200  -0.430300  1
  H  H91  1  0.649200  0.946000  -0.354700  1
  H  H92  1  0.610000  0.955800  -0.444600  1
  H  H93  1  1.031700  1.454700  -0.417300  1
  H  H94  1  1.222300  1.347300  -0.412100  1
  H  H95  1  1.092300  1.273300  -0.464400  1
  H  H96  1  1.010600  1.016800  -0.284200  1
  H  H97  1  1.082200  0.998200  -0.380200  1
  H  H98  1  1.208300  1.067000  -0.324500  1
  Si  Si99  1  0.247680  0.709210  0.322850  1.0
  Si  Si100  1  0.752320  1.290790  -0.322850  1
