# generated using pymatgen
data_SiH32C29S3F
_symmetry_space_group_name_H-M   'P 1'
_cell_length_a   8.27180000
_cell_length_b   10.50450000
_cell_length_c   16.63830000
_cell_angle_alpha   80.08500000
_cell_angle_beta   79.99200000
_cell_angle_gamma   71.71300000
_symmetry_Int_Tables_number   1
_chemical_formula_structural   SiH32C29S3F
_chemical_formula_sum   'Si2 H64 C58 S6 F2'
_cell_volume   1341.07463097
_cell_formula_units_Z   2
loop_
 _symmetry_equiv_pos_site_id
 _symmetry_equiv_pos_as_xyz
  1  'x, y, z'
loop_
 _atom_site_type_symbol
 _atom_site_label
 _atom_site_symmetry_multiplicity
 _atom_site_fract_x
 _atom_site_fract_y
 _atom_site_fract_z
 _atom_site_occupancy
  C  C1  1  0.576800  0.376700  0.273950  1
  C  C2  1  0.597200  0.518200  0.102820  1
  C  C3  1  0.692500  0.206400  0.129770  1
  C  C4  1  0.321100  0.369400  0.172610  1
  C  C5  1  0.564800  0.406700  0.341750  1
  C  C6  1  0.767700  0.538400  0.113200  1
  C  C7  1  0.654100  0.189000  0.046070  1
  C  C8  1  0.279800  0.244900  0.223610  1
  C  C9  1  0.537500  0.449300  0.421380  1
  C  C10  1  0.803500  0.662600  0.060070  1
  C  C11  1  0.746700  0.048200  0.022050  1
  C  C12  1  0.090900  0.252700  0.231070  1
  C  C13  1  0.399300  0.429600  0.479730  1
  C  C14  1  0.636500  0.520800  0.443790  1
  C  C15  1  0.973800  0.681000  0.071380  1
  C  C16  1  0.727300  0.033300  -0.065000  1
  C  C17  1  0.047600  0.133000  0.285200  1
  C  C18  1  0.363500  0.479200  0.556210  1
  C  C19  1  0.600700  0.570400  0.520270  1
  C  C20  1  0.784000  0.565000  0.403600  1
  C  C21  1  0.462500  0.550700  0.578620  1
  C  C22  1  0.216000  0.435000  0.596400  1
  C  C23  1  0.150000  0.366000  0.554200  1
  C  C24  1  0.850000  0.634000  0.445800  1
  C  C25  1  0.435200  0.593300  0.658250  1
  C  C26  1  0.006000  0.311000  0.585400  1
  C  C27  1  0.994000  0.689000  0.414600  1
  C  C28  1  0.423200  0.623300  0.726050  1
  C  C29  1  -0.056200  0.241400  0.544000  1
  C  C30  1  1.056200  0.758600  0.456000  1
  C  C31  1  -0.204500  0.205100  0.587300  1
  C  C32  1  -0.255700  0.256400  0.664200  1
  C  C33  1  1.204500  0.794900  0.412700  1
  C  C34  1  1.255700  0.743600  0.335800  1
  C  C35  1  0.402800  0.481800  0.897180  1
  C  C36  1  0.307500  0.793600  0.870230  1
  C  C37  1  0.678900  0.630600  0.827390  1
  C  C38  1  -0.298000  0.132700  0.562500  1
  C  C39  1  -0.399100  0.238000  0.716400  1
  C  C40  1  1.298000  0.867300  0.437500  1
  C  C41  1  1.399100  0.762000  0.283600  1
  C  C42  1  0.232300  0.461600  0.886800  1
  C  C43  1  0.345900  0.811000  0.953930  1
  C  C44  1  0.720200  0.755100  0.776390  1
  C  C45  1  -0.438000  0.109000  0.616200  1
  C  C46  1  -0.492000  0.165000  0.691200  1
  C  C47  1  1.438000  0.891000  0.383800  1
  C  C48  1  1.492000  0.835000  0.308800  1
  C  C49  1  0.196500  0.337400  0.939930  1
  C  C50  1  0.253300  0.951800  0.977950  1
  C  C51  1  0.909100  0.747300  0.768930  1
  C  C52  1  -0.644600  0.134500  0.733800  1
  C  C53  1  1.644600  0.865500  0.266200  1
  C  C54  1  0.026200  0.319000  0.928620  1
  C  C55  1  0.272700  0.966700  1.065000  1
  C  C56  1  0.952400  0.867000  0.714800  1
  C  C57  1  -0.707400  0.067900  0.692200  1
  C  C58  1  1.707400  0.932100  0.307800  1
  F  F59  1  0.850000  0.534400  0.327800  1
  F  F60  1  0.150000  0.465600  0.672200  1
  H  H61  1  0.598700  0.509800  0.044300  1
  H  H62  1  0.503000  0.599700  0.116500  1
  H  H63  1  0.813600  0.206000  0.125000  1
  H  H64  1  0.677600  0.128800  0.170400  1
  H  H65  1  0.245500  0.451200  0.196400  1
  H  H66  1  0.294800  0.376000  0.115900  1
  H  H67  1  0.766800  0.546700  0.171700  1
  H  H68  1  0.862400  0.457300  0.099200  1
  H  H69  1  0.528900  0.206200  0.048000  1
  H  H70  1  0.689500  0.256800  0.003500  1
  H  H71  1  0.349800  0.163500  0.197900  1
  H  H72  1  0.312200  0.235000  0.279400  1
  H  H73  1  0.709200  0.744000  0.074100  1
  H  H74  1  0.804900  0.654400  0.001500  1
  H  H75  1  0.870300  0.027000  0.026800  1
  H  H76  1  0.701300  -0.018500  0.061300  1
  H  H77  1  0.020500  0.336800  0.254000  1
  H  H78  1  0.060000  0.257800  0.175500  1
  H  H79  1  0.971900  0.691900  0.128900  1
  H  H80  1  0.990900  0.761400  0.035700  1
  H  H81  1  1.068000  0.601300  0.056800  1
  H  H82  1  0.605300  0.053500  -0.070100  1
  H  H83  1  0.787900  -0.059400  -0.076300  1
  H  H84  1  0.776300  0.096400  -0.104400  1
  H  H85  1  0.108600  0.050300  0.260200  1
  H  H86  1  -0.076400  0.146600  0.290800  1
  H  H87  1  0.082600  0.124800  0.339700  1
  H  H88  1  -0.006400  0.218300  0.490600  1
  H  H89  1  1.006400  0.781700  0.509400  1
  H  H90  1  0.401300  0.490200  0.955700  1
  H  H91  1  0.497000  0.400300  0.883500  1
  H  H92  1  0.186400  0.794000  0.875000  1
  H  H93  1  0.322400  0.871200  0.829600  1
  H  H94  1  0.754500  0.548800  0.803600  1
  H  H95  1  0.705200  0.624000  0.884100  1
  H  H96  1  -0.267600  0.100400  0.510300  1
  H  H97  1  -0.432900  0.273900  0.767400  1
  H  H98  1  1.267600  0.899600  0.489700  1
  H  H99  1  1.432900  0.726100  0.232600  1
  H  H100  1  0.233200  0.453300  0.828300  1
  H  H101  1  0.137600  0.542700  0.900800  1
  H  H102  1  0.471100  0.793800  0.952000  1
  H  H103  1  0.310500  0.743200  0.996500  1
  H  H104  1  0.650200  0.836500  0.802100  1
  H  H105  1  0.687800  0.765000  0.720600  1
  H  H106  1  0.290800  0.256000  0.925900  1
  H  H107  1  0.195100  0.345600  0.998500  1
  H  H108  1  0.129700  0.973000  0.973200  1
  H  H109  1  0.298700  1.018500  0.938700  1
  H  H110  1  0.979500  0.663200  0.746000  1
  H  H111  1  0.940000  0.742200  0.824500  1
  H  H112  1  -0.695600  0.159800  0.786700  1
  H  H113  1  1.695600  0.840200  0.213300  1
  H  H114  1  0.028100  0.308100  0.871100  1
  H  H115  1  0.009100  0.238600  0.964300  1
  H  H116  1  -0.068000  0.398700  0.943200  1
  H  H117  1  0.394700  0.946500  1.070100  1
  H  H118  1  0.212100  1.059400  1.076300  1
  H  H119  1  0.223700  0.903600  1.104400  1
  H  H120  1  0.891400  0.949700  0.739800  1
  H  H121  1  1.076400  0.853400  0.709200  1
  H  H122  1  0.917400  0.875200  0.660300  1
  H  H123  1  -0.812400  0.046700  0.710200  1
  H  H124  1  1.812400  0.953300  0.289800  1
  S  S125  1  0.272200  0.339840  0.459510  1
  S  S126  1  0.727800  0.660160  0.540490  1
  S  S127  1  -0.120270  0.343330  0.680060  1
  S  S128  1  1.120270  0.656670  0.319940  1
  S  S129  1  -0.577170  0.023130  0.600920  1
  S  S130  1  1.577170  0.976870  0.399080  1
  Si  Si131  1  0.549570  0.366680  0.167790  1.0
  Si  Si132  1  0.450430  0.633320  0.832210  1
