# generated using pymatgen
data_SiH19C17O
_symmetry_space_group_name_H-M   'P 1'
_cell_length_a   6.37360000
_cell_length_b   6.98830000
_cell_length_c   17.16530000
_cell_angle_alpha   80.93200000
_cell_angle_beta   84.46900000
_cell_angle_gamma   78.07200000
_symmetry_Int_Tables_number   1
_chemical_formula_structural   SiH19C17O
_chemical_formula_sum   'Si2 H38 C34 O2'
_cell_volume   737.08326202
_cell_formula_units_Z   2
loop_
 _symmetry_equiv_pos_site_id
 _symmetry_equiv_pos_as_xyz
  1  'x, y, z'
loop_
 _atom_site_type_symbol
 _atom_site_label
 _atom_site_symmetry_multiplicity
 _atom_site_fract_x
 _atom_site_fract_y
 _atom_site_fract_z
 _atom_site_occupancy
  C  C1  1  0.673100  0.328800  0.724900  1
  C  C2  1  0.698600  0.462400  0.881300  1
  C  C3  1  0.675100  0.029600  0.871100  1
  C  C4  1  1.080800  0.191400  0.809900  1
  C  C5  1  0.615900  0.380900  0.658700  1
  C  C6  1  0.459200  0.544900  0.886600  1
  C  C7  1  0.770800  -0.064400  0.950000  1
  C  C8  1  1.171800  0.025400  0.759600  1
  C  C9  1  0.556000  0.441100  0.578800  1
  C  C10  1  0.709000  0.389000  0.518300  1
  C  C11  1  0.347000  0.560000  0.563100  1
  C  C12  1  0.915000  0.280000  0.536400  1
  C  C13  1  0.653000  0.440000  0.436900  1
  C  C14  1  0.291000  0.611000  0.481700  1
  C  C15  1  0.189000  0.617000  0.624400  1
  C  C16  1  1.055300  0.227000  0.475600  1
  C  C17  1  0.444000  0.558900  0.421200  1
  C  C18  1  0.811000  0.383000  0.375600  1
  C  C19  1  0.085000  0.720000  0.463600  1
  C  C20  1  -0.010500  0.721500  0.605400  1
  C  C21  1  1.010500  0.278500  0.394600  1
  C  C22  1  0.384100  0.619100  0.341300  1
  C  C23  1  -0.055300  0.773000  0.524400  1
  C  C24  1  -0.197500  0.807600  0.649500  1
  C  C25  1  1.197500  0.192400  0.350500  1
  C  C26  1  1.341800  0.105400  0.402900  1
  C  C27  1  0.326900  0.671200  0.275100  1
  C  C28  1  -0.341800  0.894600  0.597100  1
  C  C29  1  0.301400  0.537600  0.118700  1
  C  C30  1  0.324900  0.970400  0.128900  1
  C  C31  1  -0.080800  0.808600  0.190100  1
  C  C32  1  0.540800  0.455100  0.113400  1
  C  C33  1  0.229200  1.064400  0.050000  1
  C  C34  1  -0.171800  0.974600  0.240400  1
  H  H35  1  0.746300  0.417800  0.935500  1
  H  H36  1  0.773900  0.570100  0.857200  1
  H  H37  1  0.517200  0.067500  0.880200  1
  H  H38  1  0.704700  -0.070400  0.834500  1
  H  H39  1  1.132900  0.312100  0.784900  1
  H  H40  1  1.138900  0.152600  0.862700  1
  H  H41  1  0.407800  0.580900  0.833300  1
  H  H42  1  0.430800  0.662300  0.913500  1
  H  H43  1  0.384100  0.444700  0.916600  1
  H  H44  1  0.926300  -0.109000  0.941300  1
  H  H45  1  0.704900  -0.177700  0.972400  1
  H  H46  1  0.742200  0.033200  0.986800  1
  H  H47  1  1.127100  -0.096900  0.784900  1
  H  H48  1  1.329000  0.004900  0.755100  1
  H  H49  1  1.117100  0.062500  0.706800  1
  H  H50  1  0.953800  0.244500  0.589600  1
  H  H51  1  0.221800  0.581600  0.678300  1
  H  H52  1  0.778200  0.418400  0.321700  1
  H  H53  1  0.046200  0.755500  0.410400  1
  H  H54  1  -0.215900  0.803900  0.705300  1
  H  H55  1  1.215900  0.196100  0.294700  1
  H  H56  1  1.482700  0.039400  0.388400  1
  H  H57  1  -0.482700  0.960600  0.611600  1
  H  H58  1  0.253700  0.582200  0.064500  1
  H  H59  1  0.226100  0.429900  0.142800  1
  H  H60  1  0.482800  0.932500  0.119800  1
  H  H61  1  0.295300  1.070400  0.165500  1
  H  H62  1  -0.132900  0.687900  0.215100  1
  H  H63  1  -0.138900  0.847400  0.137300  1
  H  H64  1  0.592200  0.419100  0.166700  1
  H  H65  1  0.569200  0.337700  0.086500  1
  H  H66  1  0.615900  0.555300  0.083400  1
  H  H67  1  0.073700  1.109000  0.058700  1
  H  H68  1  0.295100  1.177700  0.027600  1
  H  H69  1  0.257800  0.966800  0.013200  1
  H  H70  1  -0.127100  1.096900  0.215100  1
  H  H71  1  -0.329000  0.995100  0.244900  1
  H  H72  1  -0.117100  0.937500  0.293200  1
  O  O73  1  1.266700  0.120700  0.480100  1
  O  O74  1  -0.266700  0.879300  0.519900  1
  Si  Si75  1  0.782010  0.252060  0.822800  1.0
  Si  Si76  1  0.217990  0.747940  0.177200  1
