# generated using pymatgen
data_SiH32C27SF
_symmetry_space_group_name_H-M   'P 1'
_cell_length_a   7.92480000
_cell_length_b   8.84810000
_cell_length_c   17.76950000
_cell_angle_alpha   101.22500000
_cell_angle_beta   99.04200000
_cell_angle_gamma   97.37100000
_symmetry_Int_Tables_number   1
_chemical_formula_structural   SiH32C27SF
_chemical_formula_sum   'Si2 H64 C54 S2 F2'
_cell_volume   1190.61795307
_cell_formula_units_Z   2
loop_
 _symmetry_equiv_pos_site_id
 _symmetry_equiv_pos_as_xyz
  1  'x, y, z'
loop_
 _atom_site_type_symbol
 _atom_site_label
 _atom_site_symmetry_multiplicity
 _atom_site_fract_x
 _atom_site_fract_y
 _atom_site_fract_z
 _atom_site_occupancy
  C  C1  1  0.468900  0.345800  0.267150  1
  C  C2  1  0.497500  0.053000  0.159100  1
  C  C3  1  0.700300  0.372500  0.146400  1
  C  C4  1  0.312800  0.312400  0.097200  1
  C  C5  1  0.471500  0.392900  0.335860  1
  C  C6  1  0.657300  0.024600  0.213200  1
  C  C7  1  0.325400  -0.023000  0.177300  1
  C  C8  1  0.850900  0.405500  0.219300  1
  C  C9  1  0.760800  0.287800  0.074900  1
  C  C10  1  0.313600  0.250300  0.009600  1
  C  C11  1  0.325700  0.489400  0.114100  1
  C  C12  1  0.482700  0.446200  0.418060  1
  C  C13  1  0.672600  -0.137900  0.222500  1
  C  C14  1  0.871300  0.570800  0.256500  1
  C  C15  1  0.146300  0.268500  -0.042200  1
  C  C16  1  0.426500  0.587900  0.447240  1
  C  C17  1  0.555100  0.357200  0.469240  1
  C  C18  1  0.352000  0.677000  0.397730  1
  C  C19  1  0.444900  0.642800  0.530760  1
  C  C20  1  0.573500  0.412100  0.552760  1
  C  C21  1  0.608500  0.214900  0.440970  1
  C  C22  1  0.296900  0.816500  0.426150  1
  C  C23  1  0.517300  0.553800  0.581940  1
  C  C24  1  0.391500  0.785100  0.559030  1
  C  C25  1  0.648000  0.323000  0.602270  1
  C  C26  1  0.680800  0.126800  0.490420  1
  C  C27  1  0.218500  0.904700  0.375430  1
  C  C28  1  0.319200  0.873200  0.509580  1
  C  C29  1  0.528500  0.607100  0.664140  1
  C  C30  1  0.703100  0.183500  0.573850  1
  C  C31  1  0.733000  -0.018100  0.460350  1
  C  C32  1  0.168700  1.041700  0.406110  1
  C  C33  1  0.267000  1.018100  0.539650  1
  C  C34  1  0.531100  0.654200  0.732850  1
  C  C35  1  0.781500  0.095300  0.624570  1
  C  C36  1  0.805700  -0.100100  0.510610  1
  C  C37  1  0.194300  1.100100  0.489390  1
  C  C38  1  0.831300  -0.041700  0.593890  1
  C  C39  1  0.867700  -0.248600  0.496200  1
  C  C40  1  0.132300  1.248600  0.503800  1
  C  C41  1  0.075000  1.293200  0.437200  1
  C  C42  1  0.502500  0.947000  0.840900  1
  C  C43  1  0.299700  0.627500  0.853600  1
  C  C44  1  0.687200  0.687600  0.902800  1
  C  C45  1  0.925000  -0.293200  0.562800  1
  C  C46  1  0.342700  0.975400  0.786800  1
  C  C47  1  0.674600  1.023000  0.822700  1
  C  C48  1  0.149100  0.594500  0.780700  1
  C  C49  1  0.239200  0.712200  0.925100  1
  C  C50  1  0.686400  0.749700  0.990400  1
  C  C51  1  0.674300  0.510600  0.885900  1
  C  C52  1  0.327400  1.137900  0.777500  1
  C  C53  1  0.128700  0.429200  0.743500  1
  C  C54  1  0.853700  0.731500  1.042200  1
  F  F55  1  -0.001500  1.418100  0.430700  1
  F  F56  1  1.001500  -0.418100  0.569300  1
  H  H57  1  0.503800  0.005100  0.104000  1
  H  H58  1  0.675400  0.475700  0.136600  1
  H  H59  1  0.200000  0.266900  0.108700  1
  H  H60  1  0.761300  0.065100  0.194200  1
  H  H61  1  0.662300  0.089600  0.265800  1
  H  H62  1  0.227600  -0.003600  0.141400  1
  H  H63  1  0.316800  0.022300  0.231200  1
  H  H64  1  0.323200  -0.135900  0.170800  1
  H  H65  1  0.822100  0.340000  0.256200  1
  H  H66  1  0.959700  0.381000  0.202800  1
  H  H67  1  0.667600  0.268700  0.029100  1
  H  H68  1  0.791200  0.187900  0.083700  1
  H  H69  1  0.862600  0.352200  0.065800  1
  H  H70  1  0.414200  0.308300  -0.005100  1
  H  H71  1  0.326000  0.138600  0.000600  1
  H  H72  1  0.322800  0.528400  0.169400  1
  H  H73  1  0.228000  0.517600  0.081600  1
  H  H74  1  0.434700  0.536200  0.102300  1
  H  H75  1  0.780500  -0.136200  0.258400  1
  H  H76  1  0.673500  -0.204300  0.171500  1
  H  H77  1  0.573900  -0.179600  0.243600  1
  H  H78  1  0.963800  0.595200  0.302800  1
  H  H79  1  0.762500  0.593800  0.272200  1
  H  H80  1  0.901200  0.634400  0.219700  1
  H  H81  1  0.148400  0.223900  -0.096900  1
  H  H82  1  0.137500  0.379500  -0.035800  1
  H  H83  1  0.046300  0.213600  -0.026700  1
  H  H84  1  0.338700  0.640800  0.342800  1
  H  H85  1  0.594700  0.177600  0.386100  1
  H  H86  1  0.405300  0.822400  0.613900  1
  H  H87  1  0.661300  0.359200  0.657200  1
  H  H88  1  0.201200  0.868200  0.320400  1
  H  H89  1  0.717000  -0.057100  0.405600  1
  H  H90  1  0.283000  1.057100  0.594400  1
  H  H91  1  0.798800  0.131800  0.679600  1
  H  H92  1  0.867800  -0.307900  0.445500  1
  H  H93  1  0.132200  1.307900  0.554500  1
  H  H94  1  0.496200  0.994900  0.896000  1
  H  H95  1  0.324600  0.524300  0.863400  1
  H  H96  1  0.800000  0.733100  0.891300  1
  H  H97  1  0.238700  0.934900  0.805800  1
  H  H98  1  0.337700  0.910400  0.734200  1
  H  H99  1  0.772400  1.003600  0.858600  1
  H  H100  1  0.683200  0.977700  0.768800  1
  H  H101  1  0.676800  1.135900  0.829200  1
  H  H102  1  0.177900  0.660000  0.743800  1
  H  H103  1  0.040300  0.619000  0.797200  1
  H  H104  1  0.332400  0.731300  0.970900  1
  H  H105  1  0.208800  0.812100  0.916300  1
  H  H106  1  0.137400  0.647800  0.934200  1
  H  H107  1  0.585800  0.691700  1.005100  1
  H  H108  1  0.674000  0.861400  0.999400  1
  H  H109  1  0.677200  0.471600  0.830600  1
  H  H110  1  0.772000  0.482400  0.918400  1
  H  H111  1  0.565300  0.463800  0.897700  1
  H  H112  1  0.219500  1.136200  0.741600  1
  H  H113  1  0.326500  1.204300  0.828500  1
  H  H114  1  0.426100  1.179600  0.756400  1
  H  H115  1  0.036200  0.404800  0.697200  1
  H  H116  1  0.237500  0.406200  0.727800  1
  H  H117  1  0.098800  0.365600  0.780300  1
  H  H118  1  0.851600  0.776100  1.096900  1
  H  H119  1  0.862500  0.620500  1.035800  1
  H  H120  1  0.953700  0.786400  1.026700  1
  S  S121  1  0.068700  1.160800  0.349900  1
  S  S122  1  0.931300  -0.160800  0.650100  1
  Si  Si123  1  0.493140  0.264080  0.166650  1.0
  Si  Si124  1  0.506860  0.735920  0.833350  1
