# generated using pymatgen
data_SiH25C24
_symmetry_space_group_name_H-M   'P 1'
_cell_length_a   7.83720000
_cell_length_b   10.82730000
_cell_length_c   12.23760000
_cell_angle_alpha   69.94000000
_cell_angle_beta   84.78500000
_cell_angle_gamma   73.60800000
_symmetry_Int_Tables_number   1
_chemical_formula_structural   SiH25C24
_chemical_formula_sum   'Si2 H50 C48'
_cell_volume   935.76470161
_cell_formula_units_Z   2
loop_
 _symmetry_equiv_pos_site_id
 _symmetry_equiv_pos_as_xyz
  1  'x, y, z'
loop_
 _atom_site_type_symbol
 _atom_site_label
 _atom_site_symmetry_multiplicity
 _atom_site_fract_x
 _atom_site_fract_y
 _atom_site_fract_z
 _atom_site_occupancy
  C  C1  1  0.570400  0.286700  0.276800  1
  C  C2  1  0.580100  0.007700  0.283900  1
  C  C3  1  0.401600  0.255800  0.080800  1
  C  C4  1  0.809300  0.145500  0.120900  1
  C  C5  1  0.549100  0.352900  0.340900  1
  C  C6  1  0.477800  -0.074200  0.250700  1
  C  C7  1  0.410200  -0.016600  0.346400  1
  C  C8  1  0.421600  0.231400  -0.034200  1
  C  C9  1  0.417600  0.368500  -0.030900  1
  C  C10  1  0.970600  0.113400  0.194400  1
  C  C11  1  0.919100  0.243000  0.097000  1
  C  C12  1  0.523100  0.427500  0.420200  1
  C  C13  1  0.385200  0.417900  0.502700  1
  C  C14  1  0.638600  0.509600  0.415700  1
  C  C15  1  0.264800  0.340500  0.506200  1
  C  C16  1  0.361400  0.490400  0.584300  1
  C  C17  1  0.614800  0.582100  0.497300  1
  C  C18  1  0.777700  0.519000  0.335900  1
  C  C19  1  0.125100  0.334200  0.583800  1
  C  C20  1  0.476900  0.572500  0.579800  1
  C  C21  1  0.222300  0.481000  0.664100  1
  C  C22  1  0.735200  0.659500  0.493800  1
  C  C23  1  0.898100  0.593100  0.333600  1
  C  C24  1  0.000000  0.258100  0.584400  1
  C  C25  1  0.101900  0.406900  0.666400  1
  C  C26  1  0.450900  0.647100  0.659100  1
  C  C27  1  0.874900  0.665800  0.416200  1
  C  C28  1  1.046200  0.595400  0.254800  1
  C  C29  1  -0.135200  0.257400  0.662300  1
  C  C30  1  0.017200  0.182800  0.499000  1
  C  C31  1  -0.046200  0.404600  0.745200  1
  C  C32  1  0.429600  0.713300  0.723200  1
  C  C33  1  1.000000  0.741900  0.415600  1
  C  C34  1  1.158700  0.669500  0.258200  1
  C  C35  1  1.079100  0.512200  0.175200  1
  C  C36  1  -0.158700  0.330500  0.741800  1
  C  C37  1  -0.079100  0.487800  0.824800  1
  C  C38  1  1.135200  0.742600  0.337700  1
  C  C39  1  0.982800  0.817200  0.501000  1
  C  C40  1  0.419900  0.992300  0.716100  1
  C  C41  1  0.598400  0.744200  0.919200  1
  C  C42  1  0.190700  0.854500  0.879100  1
  C  C43  1  0.522200  1.074200  0.749300  1
  C  C44  1  0.589800  1.016600  0.653600  1
  C  C45  1  0.578400  0.768600  1.034200  1
  C  C46  1  0.582400  0.631500  1.030900  1
  C  C47  1  0.029400  0.886600  0.805600  1
  C  C48  1  0.080900  0.757000  0.903000  1
  H  H49  1  0.691800  -0.048000  0.329400  1
  H  H50  1  0.280000  0.264400  0.115300  1
  H  H51  1  0.824100  0.094300  0.064800  1
  H  H52  1  0.411800  -0.031300  0.175900  1
  H  H53  1  0.530000  -0.174100  0.272600  1
  H  H54  1  0.420800  -0.081100  0.427200  1
  H  H55  1  0.302600  0.061700  0.330500  1
  H  H56  1  0.536800  0.173700  -0.050500  1
  H  H57  1  0.316200  0.222300  -0.066500  1
  H  H58  1  0.309700  0.444100  -0.061000  1
  H  H59  1  0.530400  0.395500  -0.045000  1
  H  H60  1  0.950800  0.116900  0.274500  1
  H  H61  1  1.077400  0.042900  0.184800  1
  H  H62  1  0.994500  0.253800  0.026800  1
  H  H63  1  0.868000  0.327700  0.116300  1
  H  H64  1  0.280600  0.291200  0.453400  1
  H  H65  1  0.790800  0.472900  0.280900  1
  H  H66  1  0.209200  0.527100  0.719100  1
  H  H67  1  0.719400  0.708800  0.546600  1
  H  H68  1  -0.216600  0.206400  0.663600  1
  H  H69  1  -0.076500  0.135400  0.513300  1
  H  H70  1  0.133900  0.116100  0.508600  1
  H  H71  1  0.005400  0.248000  0.419500  1
  H  H72  1  1.255900  0.672400  0.205800  1
  H  H73  1  1.193700  0.514700  0.136300  1
  H  H74  1  1.081200  0.417500  0.220500  1
  H  H75  1  0.984000  0.549900  0.116700  1
  H  H76  1  -0.255900  0.327600  0.794200  1
  H  H77  1  -0.193700  0.485300  0.863700  1
  H  H78  1  -0.081200  0.582500  0.779500  1
  H  H79  1  0.016000  0.450100  0.883300  1
  H  H80  1  1.216600  0.793600  0.336400  1
  H  H81  1  1.076500  0.864600  0.486700  1
  H  H82  1  0.866100  0.883900  0.491400  1
  H  H83  1  0.994600  0.752000  0.580500  1
  H  H84  1  0.308200  1.048000  0.670600  1
  H  H85  1  0.720000  0.735600  0.884700  1
  H  H86  1  0.175900  0.905700  0.935200  1
  H  H87  1  0.588200  1.031300  0.824100  1
  H  H88  1  0.470000  1.174100  0.727400  1
  H  H89  1  0.579200  1.081100  0.572800  1
  H  H90  1  0.697400  0.938300  0.669500  1
  H  H91  1  0.463200  0.826300  1.050500  1
  H  H92  1  0.683800  0.777700  1.066500  1
  H  H93  1  0.690300  0.555900  1.061000  1
  H  H94  1  0.469600  0.604500  1.045000  1
  H  H95  1  0.049200  0.883100  0.725500  1
  H  H96  1  -0.077400  0.957100  0.815200  1
  H  H97  1  0.005500  0.746200  0.973200  1
  H  H98  1  0.132000  0.672300  0.883700  1
  Si  Si99  1  0.588600  0.178090  0.186510  1.0
  Si  Si100  1  0.411400  0.821910  0.813490  1
