# generated using pymatgen
data_SiH27C22
_symmetry_space_group_name_H-M   'P 1'
_cell_length_a   28.22200000
_cell_length_b   18.90400000
_cell_length_c   14.55500000
_cell_angle_alpha   90.04000000
_cell_angle_beta   92.71300000
_cell_angle_gamma   89.93000000
_symmetry_Int_Tables_number   1
_chemical_formula_structural   SiH27C22
_chemical_formula_sum   'Si16 H432 C352'
_cell_volume   7756.50801225
_cell_formula_units_Z   16
loop_
 _symmetry_equiv_pos_site_id
 _symmetry_equiv_pos_as_xyz
  1  'x, y, z'
loop_
 _atom_site_type_symbol
 _atom_site_label
 _atom_site_symmetry_multiplicity
 _atom_site_fract_x
 _atom_site_fract_y
 _atom_site_fract_z
 _atom_site_occupancy
  C  C1  1  0.127960  0.077040  0.360560  1
  C  C2  1  0.062850  0.047660  0.199650  1
  C  C3  1  0.129350  -0.068960  0.276330  1
  C  C4  1  0.171810  0.063960  0.179670  1
  C  C5  1  0.131090  0.114020  0.428240  1
  C  C6  1  0.054560  0.126270  0.185200  1
  C  C7  1  0.049590  0.005580  0.112560  1
  C  C8  1  0.088050  -0.097400  0.329650  1
  C  C9  1  0.176720  -0.088090  0.327390  1
  C  C10  1  0.216620  0.086390  0.235370  1
  C  C11  1  0.183490  0.014060  0.101660  1
  C  C12  1  0.134560  0.158010  0.508840  1
  C  C13  1  0.180190  0.174940  0.549370  1
  C  C14  1  0.093210  0.183030  0.547140  1
  C  C15  1  0.221630  0.152350  0.510730  1
  C  C16  1  0.183570  0.216190  0.633290  1
  C  C17  1  0.096380  0.226410  0.627900  1
  C  C18  1  0.047340  0.166170  0.507320  1
  C  C19  1  0.266580  0.166800  0.551130  1
  C  C20  1  0.228440  0.228740  0.674940  1
  C  C21  1  0.140960  0.242200  0.670390  1
  C  C22  1  0.053330  0.252190  0.663050  1
  C  C23  1  0.007530  0.190680  0.544220  1
  C  C24  1  0.308590  0.145090  0.510500  1
  C  C25  1  0.270000  0.204730  0.637090  1
  C  C26  1  0.142930  0.286010  0.751280  1
  C  C27  1  0.010610  0.235010  0.623040  1
  C  C28  1  0.353090  0.157620  0.551640  1
  C  C29  1  0.315620  0.216190  0.678520  1
  C  C30  1  0.141760  0.323730  0.818520  1
  C  C31  1  0.395660  0.136160  0.510660  1
  C  C32  1  0.356390  0.193510  0.639100  1
  C  C33  1  0.438710  0.148400  0.553060  1
  C  C34  1  0.402780  0.204640  0.680880  1
  C  C35  1  0.085600  0.360400  0.985200  1
  C  C36  1  0.118700  0.472400  0.851000  1
  C  C37  1  0.195450  0.401090  0.969970  1
  C  C38  1  0.442080  0.182970  0.639800  1
  C  C39  1  0.098400  0.292100  1.038000  1
  C  C40  1  0.069300  0.419000  1.051300  1
  C  C41  1  0.070400  0.467100  0.797200  1
  C  C42  1  0.156300  0.502600  0.788100  1
  C  C43  1  0.223980  0.333780  0.989600  1
  C  C44  1  0.195570  0.447850  1.055580  1
  C  C45  1  -0.127960  0.077040  1.139440  1
  C  C46  1  -0.062850  0.047660  1.300350  1
  C  C47  1  -0.129350  -0.068960  1.223670  1
  C  C48  1  -0.171810  0.063960  1.320330  1
  C  C49  1  -0.131090  0.114020  1.071760  1
  C  C50  1  -0.054560  0.126270  1.314800  1
  C  C51  1  -0.049590  0.005580  1.387440  1
  C  C52  1  -0.088050  -0.097400  1.170350  1
  C  C53  1  -0.176720  -0.088090  1.172610  1
  C  C54  1  -0.216620  0.086390  1.264630  1
  C  C55  1  -0.183490  0.014060  1.398340  1
  C  C56  1  -0.134560  0.158010  0.991160  1
  C  C57  1  -0.180190  0.174940  0.950630  1
  C  C58  1  -0.093210  0.183030  0.952860  1
  C  C59  1  -0.221630  0.152350  0.989270  1
  C  C60  1  -0.183570  0.216190  0.866710  1
  C  C61  1  -0.096380  0.226410  0.872100  1
  C  C62  1  -0.047340  0.166170  0.992680  1
  C  C63  1  -0.266580  0.166800  0.948870  1
  C  C64  1  -0.228440  0.228740  0.825060  1
  C  C65  1  -0.140960  0.242200  0.829610  1
  C  C66  1  -0.053330  0.252190  0.836950  1
  C  C67  1  -0.007530  0.190680  0.955780  1
  C  C68  1  -0.308590  0.145090  0.989500  1
  C  C69  1  -0.270000  0.204730  0.862910  1
  C  C70  1  -0.142930  0.286010  0.748720  1
  C  C71  1  -0.010610  0.235010  0.876960  1
  C  C72  1  -0.353090  0.157620  0.948360  1
  C  C73  1  -0.315620  0.216190  0.821480  1
  C  C74  1  -0.141760  0.323730  0.681480  1
  C  C75  1  -0.395660  0.136160  0.989340  1
  C  C76  1  -0.356390  0.193510  0.860900  1
  C  C77  1  -0.438710  0.148400  0.946940  1
  C  C78  1  -0.402780  0.204640  0.819120  1
  C  C79  1  -0.085600  0.360400  0.514800  1
  C  C80  1  -0.118700  0.472400  0.649000  1
  C  C81  1  -0.195450  0.401090  0.530030  1
  C  C82  1  -0.442080  0.182970  0.860200  1
  C  C83  1  -0.098400  0.292100  0.462000  1
  C  C84  1  -0.069300  0.419000  0.448700  1
  C  C85  1  -0.070400  0.467100  0.702800  1
  C  C86  1  -0.156300  0.502600  0.711900  1
  C  C87  1  -0.223980  0.333780  0.510400  1
  C  C88  1  -0.195570  0.447850  0.444420  1
  C  C89  1  0.627960  -0.422960  0.360560  1
  C  C90  1  0.562850  -0.452340  0.199650  1
  C  C91  1  0.629350  -0.568960  0.276330  1
  C  C92  1  0.671810  -0.436040  0.179670  1
  C  C93  1  0.631090  -0.385980  0.428240  1
  C  C94  1  0.554560  -0.373730  0.185200  1
  C  C95  1  0.549590  -0.494420  0.112560  1
  C  C96  1  0.588050  -0.597400  0.329650  1
  C  C97  1  0.676720  -0.588090  0.327390  1
  C  C98  1  0.716620  -0.413610  0.235370  1
  C  C99  1  0.683490  -0.485940  0.101660  1
  C  C100  1  0.634560  -0.341990  0.508840  1
  C  C101  1  0.680190  -0.325060  0.549370  1
  C  C102  1  0.593210  -0.316970  0.547140  1
  C  C103  1  0.721630  -0.347650  0.510730  1
  C  C104  1  0.683570  -0.283810  0.633290  1
  C  C105  1  0.596380  -0.273590  0.627900  1
  C  C106  1  0.547340  -0.333830  0.507320  1
  C  C107  1  0.766580  -0.333200  0.551130  1
  C  C108  1  0.728440  -0.271260  0.674940  1
  C  C109  1  0.640960  -0.257800  0.670390  1
  C  C110  1  0.553330  -0.247810  0.663050  1
  C  C111  1  0.507530  -0.309320  0.544220  1
  C  C112  1  0.808590  -0.354910  0.510500  1
  C  C113  1  0.770000  -0.295270  0.637090  1
  C  C114  1  0.642930  -0.213990  0.751280  1
  C  C115  1  0.510610  -0.264990  0.623040  1
  C  C116  1  0.853090  -0.342380  0.551640  1
  C  C117  1  0.815620  -0.283810  0.678520  1
  C  C118  1  0.641760  -0.176270  0.818520  1
  C  C119  1  0.895660  -0.363840  0.510660  1
  C  C120  1  0.856390  -0.306490  0.639100  1
  C  C121  1  0.938710  -0.351600  0.553060  1
  C  C122  1  0.902780  -0.295360  0.680880  1
  C  C123  1  0.585600  -0.139600  0.985200  1
  C  C124  1  0.618700  -0.027600  0.851000  1
  C  C125  1  0.695450  -0.098910  0.969970  1
  C  C126  1  0.942080  -0.317030  0.639800  1
  C  C127  1  0.598400  -0.207900  1.038000  1
  C  C128  1  0.569300  -0.081000  1.051300  1
  C  C129  1  0.570400  -0.032900  0.797200  1
  C  C130  1  0.656300  0.002600  0.788100  1
  C  C131  1  0.723980  -0.166220  0.989600  1
  C  C132  1  0.695570  -0.052150  1.055580  1
  C  C133  1  0.372040  0.577040  1.139440  1
  C  C134  1  0.437150  0.547660  1.300350  1
  C  C135  1  0.370650  0.431040  1.223670  1
  C  C136  1  0.328190  0.563960  1.320330  1
  C  C137  1  0.368910  0.614020  1.071760  1
  C  C138  1  0.445440  0.626270  1.314800  1
  C  C139  1  0.450410  0.505580  1.387440  1
  C  C140  1  0.411950  0.402600  1.170350  1
  C  C141  1  0.323280  0.411910  1.172610  1
  C  C142  1  0.283380  0.586390  1.264630  1
  C  C143  1  0.316510  0.514060  1.398340  1
  C  C144  1  0.365440  0.658010  0.991160  1
  C  C145  1  0.319810  0.674940  0.950630  1
  C  C146  1  0.406790  0.683030  0.952860  1
  C  C147  1  0.278370  0.652350  0.989270  1
  C  C148  1  0.316430  0.716190  0.866710  1
  C  C149  1  0.403620  0.726410  0.872100  1
  C  C150  1  0.452660  0.666170  0.992680  1
  C  C151  1  0.233420  0.666800  0.948870  1
  C  C152  1  0.271560  0.728740  0.825060  1
  C  C153  1  0.359040  0.742200  0.829610  1
  C  C154  1  0.446670  0.752190  0.836950  1
  C  C155  1  0.492470  0.690680  0.955780  1
  C  C156  1  0.191410  0.645090  0.989500  1
  C  C157  1  0.230000  0.704730  0.862910  1
  C  C158  1  0.357070  0.786010  0.748720  1
  C  C159  1  0.489390  0.735010  0.876960  1
  C  C160  1  0.146910  0.657620  0.948360  1
  C  C161  1  0.184380  0.716190  0.821480  1
  C  C162  1  0.358240  0.823730  0.681480  1
  C  C163  1  0.104340  0.636160  0.989340  1
  C  C164  1  0.143610  0.693510  0.860900  1
  C  C165  1  0.061290  0.648400  0.946940  1
  C  C166  1  0.097220  0.704640  0.819120  1
  C  C167  1  0.414400  0.860400  0.514800  1
  C  C168  1  0.381300  0.972400  0.649000  1
  C  C169  1  0.304550  0.901090  0.530030  1
  C  C170  1  0.057920  0.682970  0.860200  1
  C  C171  1  0.401600  0.792100  0.462000  1
  C  C172  1  0.430700  0.919000  0.448700  1
  C  C173  1  0.429600  0.967100  0.702800  1
  C  C174  1  0.343700  1.002600  0.711900  1
  C  C175  1  0.276020  0.833780  0.510400  1
  C  C176  1  0.304430  0.947850  0.444420  1
  C  C177  1  -0.127960  -0.077040  0.639440  1
  C  C178  1  -0.062850  -0.047660  0.800350  1
  C  C179  1  -0.129350  0.068960  0.723670  1
  C  C180  1  -0.171810  -0.063960  0.820330  1
  C  C181  1  -0.131090  -0.114020  0.571760  1
  C  C182  1  -0.054560  -0.126270  0.814800  1
  C  C183  1  -0.049590  -0.005580  0.887440  1
  C  C184  1  -0.088050  0.097400  0.670350  1
  C  C185  1  -0.176720  0.088090  0.672610  1
  C  C186  1  -0.216620  -0.086390  0.764630  1
  C  C187  1  -0.183490  -0.014060  0.898340  1
  C  C188  1  -0.134560  -0.158010  0.491160  1
  C  C189  1  -0.180190  -0.174940  0.450630  1
  C  C190  1  -0.093210  -0.183030  0.452860  1
  C  C191  1  -0.221630  -0.152350  0.489270  1
  C  C192  1  -0.183570  -0.216190  0.366710  1
  C  C193  1  -0.096380  -0.226410  0.372100  1
  C  C194  1  -0.047340  -0.166170  0.492680  1
  C  C195  1  -0.266580  -0.166800  0.448870  1
  C  C196  1  -0.228440  -0.228740  0.325060  1
  C  C197  1  -0.140960  -0.242200  0.329610  1
  C  C198  1  -0.053330  -0.252190  0.336950  1
  C  C199  1  -0.007530  -0.190680  0.455780  1
  C  C200  1  -0.308590  -0.145090  0.489500  1
  C  C201  1  -0.270000  -0.204730  0.362910  1
  C  C202  1  -0.142930  -0.286010  0.248720  1
  C  C203  1  -0.010610  -0.235010  0.376960  1
  C  C204  1  -0.353090  -0.157620  0.448360  1
  C  C205  1  -0.315620  -0.216190  0.321480  1
  C  C206  1  -0.141760  -0.323730  0.181480  1
  C  C207  1  -0.395660  -0.136160  0.489340  1
  C  C208  1  -0.356390  -0.193510  0.360900  1
  C  C209  1  -0.438710  -0.148400  0.446940  1
  C  C210  1  -0.402780  -0.204640  0.319120  1
  C  C211  1  -0.085600  -0.360400  0.014800  1
  C  C212  1  -0.118700  -0.472400  0.149000  1
  C  C213  1  -0.195450  -0.401090  0.030030  1
  C  C214  1  -0.442080  -0.182970  0.360200  1
  C  C215  1  -0.098400  -0.292100  -0.038000  1
  C  C216  1  -0.069300  -0.419000  -0.051300  1
  C  C217  1  -0.070400  -0.467100  0.202800  1
  C  C218  1  -0.156300  -0.502600  0.211900  1
  C  C219  1  -0.223980  -0.333780  0.010400  1
  C  C220  1  -0.195570  -0.447850  -0.055580  1
  C  C221  1  0.127960  -0.077040  -0.139440  1
  C  C222  1  0.062850  -0.047660  -0.300350  1
  C  C223  1  0.129350  0.068960  -0.223670  1
  C  C224  1  0.171810  -0.063960  -0.320330  1
  C  C225  1  0.131090  -0.114020  -0.071760  1
  C  C226  1  0.054560  -0.126270  -0.314800  1
  C  C227  1  0.049590  -0.005580  -0.387440  1
  C  C228  1  0.088050  0.097400  -0.170350  1
  C  C229  1  0.176720  0.088090  -0.172610  1
  C  C230  1  0.216620  -0.086390  -0.264630  1
  C  C231  1  0.183490  -0.014060  -0.398340  1
  C  C232  1  0.134560  -0.158010  0.008840  1
  C  C233  1  0.180190  -0.174940  0.049370  1
  C  C234  1  0.093210  -0.183030  0.047140  1
  C  C235  1  0.221630  -0.152350  0.010730  1
  C  C236  1  0.183570  -0.216190  0.133290  1
  C  C237  1  0.096380  -0.226410  0.127900  1
  C  C238  1  0.047340  -0.166170  0.007320  1
  C  C239  1  0.266580  -0.166800  0.051130  1
  C  C240  1  0.228440  -0.228740  0.174940  1
  C  C241  1  0.140960  -0.242200  0.170390  1
  C  C242  1  0.053330  -0.252190  0.163050  1
  C  C243  1  0.007530  -0.190680  0.044220  1
  C  C244  1  0.308590  -0.145090  0.010500  1
  C  C245  1  0.270000  -0.204730  0.137090  1
  C  C246  1  0.142930  -0.286010  0.251280  1
  C  C247  1  0.010610  -0.235010  0.123040  1
  C  C248  1  0.353090  -0.157620  0.051640  1
  C  C249  1  0.315620  -0.216190  0.178520  1
  C  C250  1  0.141760  -0.323730  0.318520  1
  C  C251  1  0.395660  -0.136160  0.010660  1
  C  C252  1  0.356390  -0.193510  0.139100  1
  C  C253  1  0.438710  -0.148400  0.053060  1
  C  C254  1  0.402780  -0.204640  0.180880  1
  C  C255  1  0.085600  -0.360400  0.485200  1
  C  C256  1  0.118700  -0.472400  0.351000  1
  C  C257  1  0.195450  -0.401090  0.469970  1
  C  C258  1  0.442080  -0.182970  0.139800  1
  C  C259  1  0.098400  -0.292100  0.538000  1
  C  C260  1  0.069300  -0.419000  0.551300  1
  C  C261  1  0.070400  -0.467100  0.297200  1
  C  C262  1  0.156300  -0.502600  0.288100  1
  C  C263  1  0.223980  -0.333780  0.489600  1
  C  C264  1  0.195570  -0.447850  0.555580  1
  C  C265  1  0.372040  0.422960  0.639440  1
  C  C266  1  0.437150  0.452340  0.800350  1
  C  C267  1  0.370650  0.568960  0.723670  1
  C  C268  1  0.328190  0.436040  0.820330  1
  C  C269  1  0.368910  0.385980  0.571760  1
  C  C270  1  0.445440  0.373730  0.814800  1
  C  C271  1  0.450410  0.494420  0.887440  1
  C  C272  1  0.411950  0.597400  0.670350  1
  C  C273  1  0.323280  0.588090  0.672610  1
  C  C274  1  0.283380  0.413610  0.764630  1
  C  C275  1  0.316510  0.485940  0.898340  1
  C  C276  1  0.365440  0.341990  0.491160  1
  C  C277  1  0.319810  0.325060  0.450630  1
  C  C278  1  0.406790  0.316970  0.452860  1
  C  C279  1  0.278370  0.347650  0.489270  1
  C  C280  1  0.316430  0.283810  0.366710  1
  C  C281  1  0.403620  0.273590  0.372100  1
  C  C282  1  0.452660  0.333830  0.492680  1
  C  C283  1  0.233420  0.333200  0.448870  1
  C  C284  1  0.271560  0.271260  0.325060  1
  C  C285  1  0.359040  0.257800  0.329610  1
  C  C286  1  0.446670  0.247810  0.336950  1
  C  C287  1  0.492470  0.309320  0.455780  1
  C  C288  1  0.191410  0.354910  0.489500  1
  C  C289  1  0.230000  0.295270  0.362910  1
  C  C290  1  0.357070  0.213990  0.248720  1
  C  C291  1  0.489390  0.264990  0.376960  1
  C  C292  1  0.146910  0.342380  0.448360  1
  C  C293  1  0.184380  0.283810  0.321480  1
  C  C294  1  0.358240  0.176270  0.181480  1
  C  C295  1  0.104340  0.363840  0.489340  1
  C  C296  1  0.143610  0.306490  0.360900  1
  C  C297  1  0.061290  0.351600  0.446940  1
  C  C298  1  0.097220  0.295360  0.319120  1
  C  C299  1  0.414400  0.139600  0.014800  1
  C  C300  1  0.381300  0.027600  0.149000  1
  C  C301  1  0.304550  0.098910  0.030030  1
  C  C302  1  0.057920  0.317030  0.360200  1
  C  C303  1  0.401600  0.207900  -0.038000  1
  C  C304  1  0.430700  0.081000  -0.051300  1
  C  C305  1  0.429600  0.032900  0.202800  1
  C  C306  1  0.343700  -0.002600  0.211900  1
  C  C307  1  0.276020  0.166220  0.010400  1
  C  C308  1  0.304430  0.052150  -0.055580  1
  C  C309  1  -0.372040  0.422960  -0.139440  1
  C  C310  1  -0.437150  0.452340  -0.300350  1
  C  C311  1  -0.370650  0.568960  -0.223670  1
  C  C312  1  -0.328190  0.436040  -0.320330  1
  C  C313  1  -0.368910  0.385980  -0.071760  1
  C  C314  1  -0.445440  0.373730  -0.314800  1
  C  C315  1  -0.450410  0.494420  -0.387440  1
  C  C316  1  -0.411950  0.597400  -0.170350  1
  C  C317  1  -0.323280  0.588090  -0.172610  1
  C  C318  1  -0.283380  0.413610  -0.264630  1
  C  C319  1  -0.316510  0.485940  -0.398340  1
  C  C320  1  -0.365440  0.341990  0.008840  1
  C  C321  1  -0.319810  0.325060  0.049370  1
  C  C322  1  -0.406790  0.316970  0.047140  1
  C  C323  1  -0.278370  0.347650  0.010730  1
  C  C324  1  -0.316430  0.283810  0.133290  1
  C  C325  1  -0.403620  0.273590  0.127900  1
  C  C326  1  -0.452660  0.333830  0.007320  1
  C  C327  1  -0.233420  0.333200  0.051130  1
  C  C328  1  -0.271560  0.271260  0.174940  1
  C  C329  1  -0.359040  0.257800  0.170390  1
  C  C330  1  -0.446670  0.247810  0.163050  1
  C  C331  1  -0.492470  0.309320  0.044220  1
  C  C332  1  -0.191410  0.354910  0.010500  1
  C  C333  1  -0.230000  0.295270  0.137090  1
  C  C334  1  -0.357070  0.213990  0.251280  1
  C  C335  1  -0.489390  0.264990  0.123040  1
  C  C336  1  -0.146910  0.342380  0.051640  1
  C  C337  1  -0.184380  0.283810  0.178520  1
  C  C338  1  -0.358240  0.176270  0.318520  1
  C  C339  1  -0.104340  0.363840  0.010660  1
  C  C340  1  -0.143610  0.306490  0.139100  1
  C  C341  1  -0.061290  0.351600  0.053060  1
  C  C342  1  -0.097220  0.295360  0.180880  1
  C  C343  1  -0.414400  0.139600  0.485200  1
  C  C344  1  -0.381300  0.027600  0.351000  1
  C  C345  1  -0.304550  0.098910  0.469970  1
  C  C346  1  -0.057920  0.317030  0.139800  1
  C  C347  1  -0.401600  0.207900  0.538000  1
  C  C348  1  -0.430700  0.081000  0.551300  1
  C  C349  1  -0.429600  0.032900  0.297200  1
  C  C350  1  -0.343700  -0.002600  0.288100  1
  C  C351  1  -0.276020  0.166220  0.489600  1
  C  C352  1  -0.304430  0.052150  0.555580  1
  H  H353  1  0.040000  0.032600  0.246300  1
  H  H354  1  0.128600  -0.094000  0.215700  1
  H  H355  1  0.158600  0.107900  0.149900  1
  H  H356  1  0.063000  0.151700  0.242400  1
  H  H357  1  0.021100  0.134600  0.167800  1
  H  H358  1  0.074300  0.143200  0.136200  1
  H  H359  1  0.055000  -0.044900  0.124200  1
  H  H360  1  0.069200  0.021100  0.062700  1
  H  H361  1  0.016100  0.013500  0.094900  1
  H  H362  1  0.058000  -0.085300  0.296900  1
  H  H363  1  0.088900  -0.076200  0.391200  1
  H  H364  1  0.090800  -0.148900  0.335100  1
  H  H365  1  0.203100  -0.070500  0.292400  1
  H  H366  1  0.179200  -0.139600  0.333600  1
  H  H367  1  0.178000  -0.066300  0.388600  1
  H  H368  1  0.208100  0.119200  0.284100  1
  H  H369  1  0.238400  0.109800  0.194700  1
  H  H370  1  0.232100  0.044500  0.262900  1
  H  H371  1  0.154300  0.001600  0.066400  1
  H  H372  1  0.198300  -0.029000  0.127300  1
  H  H373  1  0.205400  0.037500  0.061200  1
  H  H374  1  0.219400  0.126200  0.454900  1
  H  H375  1  0.044800  0.137200  0.454000  1
  H  H376  1  0.230700  0.254500  0.731000  1
  H  H377  1  0.054700  0.282000  0.715600  1
  H  H378  1  -0.022700  0.178200  0.517400  1
  H  H379  1  0.306300  0.121100  0.453100  1
  H  H380  1  -0.017600  0.252800  0.647900  1
  H  H381  1  0.318300  0.240400  0.735700  1
  H  H382  1  0.393900  0.112900  0.452700  1
  H  H383  1  0.466700  0.133800  0.524600  1
  H  H384  1  0.405900  0.227800  0.738800  1
  H  H385  1  0.057900  0.349300  0.942200  1
  H  H386  1  0.114600  0.508600  0.900100  1
  H  H387  1  0.213800  0.428000  0.924400  1
  H  H388  1  0.472400  0.190900  0.669200  1
  H  H389  1  0.108700  0.256000  0.994800  1
  H  H390  1  0.070500  0.275000  1.068900  1
  H  H391  1  0.124100  0.301700  1.083900  1
  H  H392  1  0.060100  0.461200  1.015800  1
  H  H393  1  0.095500  0.430800  1.095300  1
  H  H394  1  0.042200  0.402000  1.084500  1
  H  H395  1  0.046400  0.449500  0.838100  1
  H  H396  1  0.073000  0.434400  0.745400  1
  H  H397  1  0.061000  0.513900  0.774000  1
  H  H398  1  0.186800  0.506700  0.822900  1
  H  H399  1  0.146200  0.549400  0.765800  1
  H  H400  1  0.159900  0.470800  0.735600  1
  H  H401  1  0.224000  0.304700  0.933800  1
  H  H402  1  0.209600  0.307100  1.038700  1
  H  H403  1  0.256700  0.346300  1.008800  1
  H  H404  1  0.177500  0.491100  1.041700  1
  H  H405  1  0.228300  0.460200  1.074500  1
  H  H406  1  0.181000  0.422200  1.105500  1
  H  H407  1  -0.040000  0.032600  1.253700  1
  H  H408  1  -0.128600  -0.094000  1.284300  1
  H  H409  1  -0.158600  0.107900  1.350100  1
  H  H410  1  -0.063000  0.151700  1.257600  1
  H  H411  1  -0.021100  0.134600  1.332200  1
  H  H412  1  -0.074300  0.143200  1.363800  1
  H  H413  1  -0.055000  -0.044900  1.375800  1
  H  H414  1  -0.069200  0.021100  1.437300  1
  H  H415  1  -0.016100  0.013500  1.405100  1
  H  H416  1  -0.058000  -0.085300  1.203100  1
  H  H417  1  -0.088900  -0.076200  1.108800  1
  H  H418  1  -0.090800  -0.148900  1.164900  1
  H  H419  1  -0.203100  -0.070500  1.207600  1
  H  H420  1  -0.179200  -0.139600  1.166400  1
  H  H421  1  -0.178000  -0.066300  1.111400  1
  H  H422  1  -0.208100  0.119200  1.215900  1
  H  H423  1  -0.238400  0.109800  1.305300  1
  H  H424  1  -0.232100  0.044500  1.237100  1
  H  H425  1  -0.154300  0.001600  1.433600  1
  H  H426  1  -0.198300  -0.029000  1.372700  1
  H  H427  1  -0.205400  0.037500  1.438800  1
  H  H428  1  -0.219400  0.126200  1.045100  1
  H  H429  1  -0.044800  0.137200  1.046000  1
  H  H430  1  -0.230700  0.254500  0.769000  1
  H  H431  1  -0.054700  0.282000  0.784400  1
  H  H432  1  0.022700  0.178200  0.982600  1
  H  H433  1  -0.306300  0.121100  1.046900  1
  H  H434  1  0.017600  0.252800  0.852100  1
  H  H435  1  -0.318300  0.240400  0.764300  1
  H  H436  1  -0.393900  0.112900  1.047300  1
  H  H437  1  -0.466700  0.133800  0.975400  1
  H  H438  1  -0.405900  0.227800  0.761200  1
  H  H439  1  -0.057900  0.349300  0.557800  1
  H  H440  1  -0.114600  0.508600  0.599900  1
  H  H441  1  -0.213800  0.428000  0.575600  1
  H  H442  1  -0.472400  0.190900  0.830800  1
  H  H443  1  -0.108700  0.256000  0.505200  1
  H  H444  1  -0.070500  0.275000  0.431100  1
  H  H445  1  -0.124100  0.301700  0.416100  1
  H  H446  1  -0.060100  0.461200  0.484200  1
  H  H447  1  -0.095500  0.430800  0.404700  1
  H  H448  1  -0.042200  0.402000  0.415500  1
  H  H449  1  -0.046400  0.449500  0.661900  1
  H  H450  1  -0.073000  0.434400  0.754600  1
  H  H451  1  -0.061000  0.513900  0.726000  1
  H  H452  1  -0.186800  0.506700  0.677100  1
  H  H453  1  -0.146200  0.549400  0.734200  1
  H  H454  1  -0.159900  0.470800  0.764400  1
  H  H455  1  -0.224000  0.304700  0.566200  1
  H  H456  1  -0.209600  0.307100  0.461300  1
  H  H457  1  -0.256700  0.346300  0.491200  1
  H  H458  1  -0.177500  0.491100  0.458300  1
  H  H459  1  -0.228300  0.460200  0.425500  1
  H  H460  1  -0.181000  0.422200  0.394500  1
  H  H461  1  0.540000  -0.467400  0.246300  1
  H  H462  1  0.628600  -0.594000  0.215700  1
  H  H463  1  0.658600  -0.392100  0.149900  1
  H  H464  1  0.563000  -0.348300  0.242400  1
  H  H465  1  0.521100  -0.365400  0.167800  1
  H  H466  1  0.574300  -0.356800  0.136200  1
  H  H467  1  0.555000  -0.544900  0.124200  1
  H  H468  1  0.569200  -0.478900  0.062700  1
  H  H469  1  0.516100  -0.486500  0.094900  1
  H  H470  1  0.558000  -0.585300  0.296900  1
  H  H471  1  0.588900  -0.576200  0.391200  1
  H  H472  1  0.590800  -0.648900  0.335100  1
  H  H473  1  0.703100  -0.570500  0.292400  1
  H  H474  1  0.679200  -0.639600  0.333600  1
  H  H475  1  0.678000  -0.566300  0.388600  1
  H  H476  1  0.708100  -0.380800  0.284100  1
  H  H477  1  0.738400  -0.390200  0.194700  1
  H  H478  1  0.732100  -0.455500  0.262900  1
  H  H479  1  0.654300  -0.498400  0.066400  1
  H  H480  1  0.698300  -0.529000  0.127300  1
  H  H481  1  0.705400  -0.462500  0.061200  1
  H  H482  1  0.719400  -0.373800  0.454900  1
  H  H483  1  0.544800  -0.362800  0.454000  1
  H  H484  1  0.730700  -0.245500  0.731000  1
  H  H485  1  0.554700  -0.218000  0.715600  1
  H  H486  1  0.477300  -0.321800  0.517400  1
  H  H487  1  0.806300  -0.378900  0.453100  1
  H  H488  1  0.482400  -0.247200  0.647900  1
  H  H489  1  0.818300  -0.259600  0.735700  1
  H  H490  1  0.893900  -0.387100  0.452700  1
  H  H491  1  0.966700  -0.366200  0.524600  1
  H  H492  1  0.905900  -0.272200  0.738800  1
  H  H493  1  0.557900  -0.150700  0.942200  1
  H  H494  1  0.614600  0.008600  0.900100  1
  H  H495  1  0.713800  -0.072000  0.924400  1
  H  H496  1  0.972400  -0.309100  0.669200  1
  H  H497  1  0.608700  -0.244000  0.994800  1
  H  H498  1  0.570500  -0.225000  1.068900  1
  H  H499  1  0.624100  -0.198300  1.083900  1
  H  H500  1  0.560100  -0.038800  1.015800  1
  H  H501  1  0.595500  -0.069200  1.095300  1
  H  H502  1  0.542200  -0.098000  1.084500  1
  H  H503  1  0.546400  -0.050500  0.838100  1
  H  H504  1  0.573000  -0.065600  0.745400  1
  H  H505  1  0.561000  0.013900  0.774000  1
  H  H506  1  0.686800  0.006700  0.822900  1
  H  H507  1  0.646200  0.049400  0.765800  1
  H  H508  1  0.659900  -0.029200  0.735600  1
  H  H509  1  0.724000  -0.195300  0.933800  1
  H  H510  1  0.709600  -0.192900  1.038700  1
  H  H511  1  0.756700  -0.153700  1.008800  1
  H  H512  1  0.677500  -0.008900  1.041700  1
  H  H513  1  0.728300  -0.039800  1.074500  1
  H  H514  1  0.681000  -0.077800  1.105500  1
  H  H515  1  0.460000  0.532600  1.253700  1
  H  H516  1  0.371400  0.406000  1.284300  1
  H  H517  1  0.341400  0.607900  1.350100  1
  H  H518  1  0.437000  0.651700  1.257600  1
  H  H519  1  0.478900  0.634600  1.332200  1
  H  H520  1  0.425700  0.643200  1.363800  1
  H  H521  1  0.445000  0.455100  1.375800  1
  H  H522  1  0.430800  0.521100  1.437300  1
  H  H523  1  0.483900  0.513500  1.405100  1
  H  H524  1  0.442000  0.414700  1.203100  1
  H  H525  1  0.411100  0.423800  1.108800  1
  H  H526  1  0.409200  0.351100  1.164900  1
  H  H527  1  0.296900  0.429500  1.207600  1
  H  H528  1  0.320800  0.360400  1.166400  1
  H  H529  1  0.322000  0.433700  1.111400  1
  H  H530  1  0.291900  0.619200  1.215900  1
  H  H531  1  0.261600  0.609800  1.305300  1
  H  H532  1  0.267900  0.544500  1.237100  1
  H  H533  1  0.345700  0.501600  1.433600  1
  H  H534  1  0.301700  0.471000  1.372700  1
  H  H535  1  0.294600  0.537500  1.438800  1
  H  H536  1  0.280600  0.626200  1.045100  1
  H  H537  1  0.455200  0.637200  1.046000  1
  H  H538  1  0.269300  0.754500  0.769000  1
  H  H539  1  0.445300  0.782000  0.784400  1
  H  H540  1  0.522700  0.678200  0.982600  1
  H  H541  1  0.193700  0.621100  1.046900  1
  H  H542  1  0.517600  0.752800  0.852100  1
  H  H543  1  0.181700  0.740400  0.764300  1
  H  H544  1  0.106100  0.612900  1.047300  1
  H  H545  1  0.033300  0.633800  0.975400  1
  H  H546  1  0.094100  0.727800  0.761200  1
  H  H547  1  0.442100  0.849300  0.557800  1
  H  H548  1  0.385400  1.008600  0.599900  1
  H  H549  1  0.286200  0.928000  0.575600  1
  H  H550  1  0.027600  0.690900  0.830800  1
  H  H551  1  0.391300  0.756000  0.505200  1
  H  H552  1  0.429500  0.775000  0.431100  1
  H  H553  1  0.375900  0.801700  0.416100  1
  H  H554  1  0.439900  0.961200  0.484200  1
  H  H555  1  0.404500  0.930800  0.404700  1
  H  H556  1  0.457800  0.902000  0.415500  1
  H  H557  1  0.453600  0.949500  0.661900  1
  H  H558  1  0.427000  0.934400  0.754600  1
  H  H559  1  0.439000  1.013900  0.726000  1
  H  H560  1  0.313200  1.006700  0.677100  1
  H  H561  1  0.353800  1.049400  0.734200  1
  H  H562  1  0.340100  0.970800  0.764400  1
  H  H563  1  0.276000  0.804700  0.566200  1
  H  H564  1  0.290400  0.807100  0.461300  1
  H  H565  1  0.243300  0.846300  0.491200  1
  H  H566  1  0.322500  0.991100  0.458300  1
  H  H567  1  0.271700  0.960200  0.425500  1
  H  H568  1  0.319000  0.922200  0.394500  1
  H  H569  1  -0.040000  -0.032600  0.753700  1
  H  H570  1  -0.128600  0.094000  0.784300  1
  H  H571  1  -0.158600  -0.107900  0.850100  1
  H  H572  1  -0.063000  -0.151700  0.757600  1
  H  H573  1  -0.021100  -0.134600  0.832200  1
  H  H574  1  -0.074300  -0.143200  0.863800  1
  H  H575  1  -0.055000  0.044900  0.875800  1
  H  H576  1  -0.069200  -0.021100  0.937300  1
  H  H577  1  -0.016100  -0.013500  0.905100  1
  H  H578  1  -0.058000  0.085300  0.703100  1
  H  H579  1  -0.088900  0.076200  0.608800  1
  H  H580  1  -0.090800  0.148900  0.664900  1
  H  H581  1  -0.203100  0.070500  0.707600  1
  H  H582  1  -0.179200  0.139600  0.666400  1
  H  H583  1  -0.178000  0.066300  0.611400  1
  H  H584  1  -0.208100  -0.119200  0.715900  1
  H  H585  1  -0.238400  -0.109800  0.805300  1
  H  H586  1  -0.232100  -0.044500  0.737100  1
  H  H587  1  -0.154300  -0.001600  0.933600  1
  H  H588  1  -0.198300  0.029000  0.872700  1
  H  H589  1  -0.205400  -0.037500  0.938800  1
  H  H590  1  -0.219400  -0.126200  0.545100  1
  H  H591  1  -0.044800  -0.137200  0.546000  1
  H  H592  1  -0.230700  -0.254500  0.269000  1
  H  H593  1  -0.054700  -0.282000  0.284400  1
  H  H594  1  0.022700  -0.178200  0.482600  1
  H  H595  1  -0.306300  -0.121100  0.546900  1
  H  H596  1  0.017600  -0.252800  0.352100  1
  H  H597  1  -0.318300  -0.240400  0.264300  1
  H  H598  1  -0.393900  -0.112900  0.547300  1
  H  H599  1  -0.466700  -0.133800  0.475400  1
  H  H600  1  -0.405900  -0.227800  0.261200  1
  H  H601  1  -0.057900  -0.349300  0.057800  1
  H  H602  1  -0.114600  -0.508600  0.099900  1
  H  H603  1  -0.213800  -0.428000  0.075600  1
  H  H604  1  -0.472400  -0.190900  0.330800  1
  H  H605  1  -0.108700  -0.256000  0.005200  1
  H  H606  1  -0.070500  -0.275000  -0.068900  1
  H  H607  1  -0.124100  -0.301700  -0.083900  1
  H  H608  1  -0.060100  -0.461200  -0.015800  1
  H  H609  1  -0.095500  -0.430800  -0.095300  1
  H  H610  1  -0.042200  -0.402000  -0.084500  1
  H  H611  1  -0.046400  -0.449500  0.161900  1
  H  H612  1  -0.073000  -0.434400  0.254600  1
  H  H613  1  -0.061000  -0.513900  0.226000  1
  H  H614  1  -0.186800  -0.506700  0.177100  1
  H  H615  1  -0.146200  -0.549400  0.234200  1
  H  H616  1  -0.159900  -0.470800  0.264400  1
  H  H617  1  -0.224000  -0.304700  0.066200  1
  H  H618  1  -0.209600  -0.307100  -0.038700  1
  H  H619  1  -0.256700  -0.346300  -0.008800  1
  H  H620  1  -0.177500  -0.491100  -0.041700  1
  H  H621  1  -0.228300  -0.460200  -0.074500  1
  H  H622  1  -0.181000  -0.422200  -0.105500  1
  H  H623  1  0.040000  -0.032600  -0.253700  1
  H  H624  1  0.128600  0.094000  -0.284300  1
  H  H625  1  0.158600  -0.107900  -0.350100  1
  H  H626  1  0.063000  -0.151700  -0.257600  1
  H  H627  1  0.021100  -0.134600  -0.332200  1
  H  H628  1  0.074300  -0.143200  -0.363800  1
  H  H629  1  0.055000  0.044900  -0.375800  1
  H  H630  1  0.069200  -0.021100  -0.437300  1
  H  H631  1  0.016100  -0.013500  -0.405100  1
  H  H632  1  0.058000  0.085300  -0.203100  1
  H  H633  1  0.088900  0.076200  -0.108800  1
  H  H634  1  0.090800  0.148900  -0.164900  1
  H  H635  1  0.203100  0.070500  -0.207600  1
  H  H636  1  0.179200  0.139600  -0.166400  1
  H  H637  1  0.178000  0.066300  -0.111400  1
  H  H638  1  0.208100  -0.119200  -0.215900  1
  H  H639  1  0.238400  -0.109800  -0.305300  1
  H  H640  1  0.232100  -0.044500  -0.237100  1
  H  H641  1  0.154300  -0.001600  -0.433600  1
  H  H642  1  0.198300  0.029000  -0.372700  1
  H  H643  1  0.205400  -0.037500  -0.438800  1
  H  H644  1  0.219400  -0.126200  -0.045100  1
  H  H645  1  0.044800  -0.137200  -0.046000  1
  H  H646  1  0.230700  -0.254500  0.231000  1
  H  H647  1  0.054700  -0.282000  0.215600  1
  H  H648  1  -0.022700  -0.178200  0.017400  1
  H  H649  1  0.306300  -0.121100  -0.046900  1
  H  H650  1  -0.017600  -0.252800  0.147900  1
  H  H651  1  0.318300  -0.240400  0.235700  1
  H  H652  1  0.393900  -0.112900  -0.047300  1
  H  H653  1  0.466700  -0.133800  0.024600  1
  H  H654  1  0.405900  -0.227800  0.238800  1
  H  H655  1  0.057900  -0.349300  0.442200  1
  H  H656  1  0.114600  -0.508600  0.400100  1
  H  H657  1  0.213800  -0.428000  0.424400  1
  H  H658  1  0.472400  -0.190900  0.169200  1
  H  H659  1  0.108700  -0.256000  0.494800  1
  H  H660  1  0.070500  -0.275000  0.568900  1
  H  H661  1  0.124100  -0.301700  0.583900  1
  H  H662  1  0.060100  -0.461200  0.515800  1
  H  H663  1  0.095500  -0.430800  0.595300  1
  H  H664  1  0.042200  -0.402000  0.584500  1
  H  H665  1  0.046400  -0.449500  0.338100  1
  H  H666  1  0.073000  -0.434400  0.245400  1
  H  H667  1  0.061000  -0.513900  0.274000  1
  H  H668  1  0.186800  -0.506700  0.322900  1
  H  H669  1  0.146200  -0.549400  0.265800  1
  H  H670  1  0.159900  -0.470800  0.235600  1
  H  H671  1  0.224000  -0.304700  0.433800  1
  H  H672  1  0.209600  -0.307100  0.538700  1
  H  H673  1  0.256700  -0.346300  0.508800  1
  H  H674  1  0.177500  -0.491100  0.541700  1
  H  H675  1  0.228300  -0.460200  0.574500  1
  H  H676  1  0.181000  -0.422200  0.605500  1
  H  H677  1  0.460000  0.467400  0.753700  1
  H  H678  1  0.371400  0.594000  0.784300  1
  H  H679  1  0.341400  0.392100  0.850100  1
  H  H680  1  0.437000  0.348300  0.757600  1
  H  H681  1  0.478900  0.365400  0.832200  1
  H  H682  1  0.425700  0.356800  0.863800  1
  H  H683  1  0.445000  0.544900  0.875800  1
  H  H684  1  0.430800  0.478900  0.937300  1
  H  H685  1  0.483900  0.486500  0.905100  1
  H  H686  1  0.442000  0.585300  0.703100  1
  H  H687  1  0.411100  0.576200  0.608800  1
  H  H688  1  0.409200  0.648900  0.664900  1
  H  H689  1  0.296900  0.570500  0.707600  1
  H  H690  1  0.320800  0.639600  0.666400  1
  H  H691  1  0.322000  0.566300  0.611400  1
  H  H692  1  0.291900  0.380800  0.715900  1
  H  H693  1  0.261600  0.390200  0.805300  1
  H  H694  1  0.267900  0.455500  0.737100  1
  H  H695  1  0.345700  0.498400  0.933600  1
  H  H696  1  0.301700  0.529000  0.872700  1
  H  H697  1  0.294600  0.462500  0.938800  1
  H  H698  1  0.280600  0.373800  0.545100  1
  H  H699  1  0.455200  0.362800  0.546000  1
  H  H700  1  0.269300  0.245500  0.269000  1
  H  H701  1  0.445300  0.218000  0.284400  1
  H  H702  1  0.522700  0.321800  0.482600  1
  H  H703  1  0.193700  0.378900  0.546900  1
  H  H704  1  0.517600  0.247200  0.352100  1
  H  H705  1  0.181700  0.259600  0.264300  1
  H  H706  1  0.106100  0.387100  0.547300  1
  H  H707  1  0.033300  0.366200  0.475400  1
  H  H708  1  0.094100  0.272200  0.261200  1
  H  H709  1  0.442100  0.150700  0.057800  1
  H  H710  1  0.385400  -0.008600  0.099900  1
  H  H711  1  0.286200  0.072000  0.075600  1
  H  H712  1  0.027600  0.309100  0.330800  1
  H  H713  1  0.391300  0.244000  0.005200  1
  H  H714  1  0.429500  0.225000  -0.068900  1
  H  H715  1  0.375900  0.198300  -0.083900  1
  H  H716  1  0.439900  0.038800  -0.015800  1
  H  H717  1  0.404500  0.069200  -0.095300  1
  H  H718  1  0.457800  0.098000  -0.084500  1
  H  H719  1  0.453600  0.050500  0.161900  1
  H  H720  1  0.427000  0.065600  0.254600  1
  H  H721  1  0.439000  -0.013900  0.226000  1
  H  H722  1  0.313200  -0.006700  0.177100  1
  H  H723  1  0.353800  -0.049400  0.234200  1
  H  H724  1  0.340100  0.029200  0.264400  1
  H  H725  1  0.276000  0.195300  0.066200  1
  H  H726  1  0.290400  0.192900  -0.038700  1
  H  H727  1  0.243300  0.153700  -0.008800  1
  H  H728  1  0.322500  0.008900  -0.041700  1
  H  H729  1  0.271700  0.039800  -0.074500  1
  H  H730  1  0.319000  0.077800  -0.105500  1
  H  H731  1  -0.460000  0.467400  -0.253700  1
  H  H732  1  -0.371400  0.594000  -0.284300  1
  H  H733  1  -0.341400  0.392100  -0.350100  1
  H  H734  1  -0.437000  0.348300  -0.257600  1
  H  H735  1  -0.478900  0.365400  -0.332200  1
  H  H736  1  -0.425700  0.356800  -0.363800  1
  H  H737  1  -0.445000  0.544900  -0.375800  1
  H  H738  1  -0.430800  0.478900  -0.437300  1
  H  H739  1  -0.483900  0.486500  -0.405100  1
  H  H740  1  -0.442000  0.585300  -0.203100  1
  H  H741  1  -0.411100  0.576200  -0.108800  1
  H  H742  1  -0.409200  0.648900  -0.164900  1
  H  H743  1  -0.296900  0.570500  -0.207600  1
  H  H744  1  -0.320800  0.639600  -0.166400  1
  H  H745  1  -0.322000  0.566300  -0.111400  1
  H  H746  1  -0.291900  0.380800  -0.215900  1
  H  H747  1  -0.261600  0.390200  -0.305300  1
  H  H748  1  -0.267900  0.455500  -0.237100  1
  H  H749  1  -0.345700  0.498400  -0.433600  1
  H  H750  1  -0.301700  0.529000  -0.372700  1
  H  H751  1  -0.294600  0.462500  -0.438800  1
  H  H752  1  -0.280600  0.373800  -0.045100  1
  H  H753  1  -0.455200  0.362800  -0.046000  1
  H  H754  1  -0.269300  0.245500  0.231000  1
  H  H755  1  -0.445300  0.218000  0.215600  1
  H  H756  1  -0.522700  0.321800  0.017400  1
  H  H757  1  -0.193700  0.378900  -0.046900  1
  H  H758  1  -0.517600  0.247200  0.147900  1
  H  H759  1  -0.181700  0.259600  0.235700  1
  H  H760  1  -0.106100  0.387100  -0.047300  1
  H  H761  1  -0.033300  0.366200  0.024600  1
  H  H762  1  -0.094100  0.272200  0.238800  1
  H  H763  1  -0.442100  0.150700  0.442200  1
  H  H764  1  -0.385400  -0.008600  0.400100  1
  H  H765  1  -0.286200  0.072000  0.424400  1
  H  H766  1  -0.027600  0.309100  0.169200  1
  H  H767  1  -0.391300  0.244000  0.494800  1
  H  H768  1  -0.429500  0.225000  0.568900  1
  H  H769  1  -0.375900  0.198300  0.583900  1
  H  H770  1  -0.439900  0.038800  0.515800  1
  H  H771  1  -0.404500  0.069200  0.595300  1
  H  H772  1  -0.457800  0.098000  0.584500  1
  H  H773  1  -0.453600  0.050500  0.338100  1
  H  H774  1  -0.427000  0.065600  0.245400  1
  H  H775  1  -0.439000  -0.013900  0.274000  1
  H  H776  1  -0.313200  -0.006700  0.322900  1
  H  H777  1  -0.353800  -0.049400  0.265800  1
  H  H778  1  -0.340100  0.029200  0.235600  1
  H  H779  1  -0.276000  0.195300  0.433800  1
  H  H780  1  -0.290400  0.192900  0.538700  1
  H  H781  1  -0.243300  0.153700  0.508800  1
  H  H782  1  -0.322500  0.008900  0.541700  1
  H  H783  1  -0.271700  0.039800  0.574500  1
  H  H784  1  -0.319000  0.077800  0.605500  1
  Si  Si785  1  0.123610  0.027900  0.251760  1.0
  Si  Si786  1  0.135600  0.387020  0.913030  1
  Si  Si787  1  -0.123610  0.027900  1.248240  1.0
  Si  Si788  1  -0.135600  0.387020  0.586970  1
  Si  Si789  1  0.623610  -0.472100  0.251760  1.0
  Si  Si790  1  0.635600  -0.112980  0.913030  1
  Si  Si791  1  0.376390  0.527900  1.248240  1.0
  Si  Si792  1  0.364400  0.887020  0.586970  1
  Si  Si793  1  -0.123610  -0.027900  0.748240  1.0
  Si  Si794  1  -0.135600  -0.387020  0.086970  1
  Si  Si795  1  0.123610  -0.027900  -0.248240  1.0
  Si  Si796  1  0.135600  -0.387020  0.413030  1
  Si  Si797  1  0.376390  0.472100  0.748240  1.0
  Si  Si798  1  0.364400  0.112980  0.086970  1
  Si  Si799  1  -0.376390  0.472100  -0.248240  1.0
  Si  Si800  1  -0.364400  0.112980  0.413030  1
