# generated using pymatgen
data_SiH25(C11Cl)2
_symmetry_space_group_name_H-M   'P 1'
_cell_length_a   7.62100000
_cell_length_b   17.68000000
_cell_length_c   15.74600000
_cell_angle_alpha   90.00000000
_cell_angle_beta   98.92600000
_cell_angle_gamma   90.00000000
_symmetry_Int_Tables_number   1
_chemical_formula_structural   SiH25(C11Cl)2
_chemical_formula_sum   'Si4 H100 C88 Cl8'
_cell_volume   2095.91113367
_cell_formula_units_Z   4
loop_
 _symmetry_equiv_pos_site_id
 _symmetry_equiv_pos_as_xyz
  1  'x, y, z'
loop_
 _atom_site_type_symbol
 _atom_site_label
 _atom_site_symmetry_multiplicity
 _atom_site_fract_x
 _atom_site_fract_y
 _atom_site_fract_z
 _atom_site_occupancy
  C  C1  1  0.541400  0.275780  0.451690  1
  C  C2  1  0.553900  0.124410  0.539150  1
  C  C3  1  0.398300  0.142620  0.345110  1
  C  C4  1  0.805400  0.161060  0.404900  1
  C  C5  1  0.526700  0.342850  0.463000  1
  C  C6  1  0.681400  0.157000  0.615430  1
  C  C7  1  0.364600  0.125600  0.559300  1
  C  C8  1  0.394700  0.193180  0.265480  1
  C  C9  1  0.415700  0.058600  0.323430  1
  C  C10  1  0.937200  0.222910  0.439800  1
  C  C11  1  0.882300  0.081900  0.428600  1
  C  C12  1  0.513200  0.421750  0.479320  1
  C  C13  1  0.352000  0.460980  0.451960  1
  C  C14  1  0.662000  0.459740  0.526320  1
  C  C15  1  0.204000  0.425180  0.403360  1
  C  C16  1  0.338000  0.540260  0.473680  1
  C  C17  1  0.648000  0.539020  0.548040  1
  C  C18  1  0.824100  0.422570  0.551810  1
  C  C19  1  0.045500  0.462950  0.377480  1
  C  C20  1  0.486800  0.578250  0.520680  1
  C  C21  1  0.175900  0.577430  0.448190  1
  C  C22  1  0.796000  0.574820  0.596640  1
  C  C23  1  0.969400  0.458610  0.598730  1
  C  C24  1  -0.105600  0.427790  0.327540  1
  C  C25  1  0.030600  0.541390  0.401270  1
  C  C26  1  0.473300  0.657150  0.537000  1
  C  C27  1  0.954500  0.537050  0.622520  1
  C  C28  1  1.134200  0.420560  0.623880  1
  C  C29  1  -0.259000  0.465980  0.304080  1
  C  C30  1  -0.134200  0.579440  0.376120  1
  C  C31  1  0.458600  0.724220  0.548310  1
  C  C32  1  1.105600  0.572210  0.672460  1
  C  C33  1  1.273800  0.456250  0.671460  1
  C  C34  1  -0.273800  0.543750  0.328540  1
  C  C35  1  1.259000  0.534020  0.695920  1
  C  C36  1  0.446100  0.875590  0.460850  1
  C  C37  1  0.601700  0.857380  0.654890  1
  C  C38  1  0.194600  0.838940  0.595100  1
  C  C39  1  0.318600  0.843000  0.384570  1
  C  C40  1  0.635400  0.874400  0.440700  1
  C  C41  1  0.605300  0.806820  0.734520  1
  C  C42  1  0.584300  0.941400  0.676570  1
  C  C43  1  0.062800  0.777090  0.560200  1
  C  C44  1  0.117700  0.918100  0.571400  1
  C  C45  1  -0.041400  0.775780  0.048310  1
  C  C46  1  -0.053900  0.624410  -0.039150  1
  C  C47  1  0.101700  0.642620  0.154890  1
  C  C48  1  -0.305400  0.661060  0.095100  1
  C  C49  1  -0.026700  0.842850  0.037000  1
  C  C50  1  -0.181400  0.657000  -0.115430  1
  C  C51  1  0.135400  0.625600  -0.059300  1
  C  C52  1  0.105300  0.693180  0.234520  1
  C  C53  1  0.084300  0.558600  0.176570  1
  C  C54  1  -0.437200  0.722910  0.060200  1
  C  C55  1  -0.382300  0.581900  0.071400  1
  C  C56  1  -0.013200  0.921750  0.020680  1
  C  C57  1  0.148000  0.960980  0.048040  1
  C  C58  1  -0.162000  0.959740  -0.026320  1
  C  C59  1  0.296000  0.925180  0.096640  1
  C  C60  1  0.162000  1.040260  0.026320  1
  C  C61  1  -0.148000  1.039020  -0.048040  1
  C  C62  1  -0.324100  0.922570  -0.051810  1
  C  C63  1  0.454500  0.962950  0.122520  1
  C  C64  1  0.013200  1.078250  -0.020680  1
  C  C65  1  0.324100  1.077430  0.051810  1
  C  C66  1  -0.296000  1.074820  -0.096640  1
  C  C67  1  -0.469400  0.958610  -0.098730  1
  C  C68  1  0.605600  0.927790  0.172460  1
  C  C69  1  0.469400  1.041390  0.098730  1
  C  C70  1  0.026700  1.157150  -0.037000  1
  C  C71  1  -0.454500  1.037050  -0.122520  1
  C  C72  1  -0.634200  0.920560  -0.123880  1
  C  C73  1  0.759000  0.965980  0.195920  1
  C  C74  1  0.634200  1.079440  0.123880  1
  C  C75  1  0.041400  1.224220  -0.048310  1
  C  C76  1  -0.605600  1.072210  -0.172460  1
  C  C77  1  -0.773800  0.956250  -0.171460  1
  C  C78  1  0.773800  1.043750  0.171460  1
  C  C79  1  -0.759000  1.034020  -0.195920  1
  C  C80  1  0.053900  1.375590  0.039150  1
  C  C81  1  -0.101700  1.357380  -0.154890  1
  C  C82  1  0.305400  1.338940  -0.095100  1
  C  C83  1  0.181400  1.343000  0.115430  1
  C  C84  1  -0.135400  1.374400  0.059300  1
  C  C85  1  -0.105300  1.306820  -0.234520  1
  C  C86  1  -0.084300  1.441400  -0.176570  1
  C  C87  1  0.437200  1.277090  -0.060200  1
  C  C88  1  0.382300  1.418100  -0.071400  1
  Cl  Cl89  1  -0.439390  0.421620  0.243830  1
  Cl  Cl90  1  1.469040  0.406750  0.702260  1
  Cl  Cl91  1  -0.469040  0.593250  0.297740  1
  Cl  Cl92  1  1.439390  0.578380  0.756170  1
  Cl  Cl93  1  0.939390  0.921620  0.256170  1
  Cl  Cl94  1  -0.969040  0.906750  -0.202260  1
  Cl  Cl95  1  0.969040  1.093250  0.202260  1
  Cl  Cl96  1  -0.939390  1.078380  -0.256170  1
  H  H97  1  0.587300  0.070300  0.532700  1
  H  H98  1  0.281400  0.149000  0.365700  1
  H  H99  1  0.790400  0.164700  0.340800  1
  H  H100  1  0.650800  0.210000  0.624200  1
  H  H101  1  0.803500  0.154000  0.603400  1
  H  H102  1  0.671200  0.127900  0.667400  1
  H  H103  1  0.361200  0.100200  0.614400  1
  H  H104  1  0.285700  0.099300  0.513700  1
  H  H105  1  0.325200  0.178100  0.562900  1
  H  H106  1  0.510700  0.191300  0.246000  1
  H  H107  1  0.368500  0.245400  0.280200  1
  H  H108  1  0.302800  0.175100  0.219500  1
  H  H109  1  0.315100  0.043500  0.280200  1
  H  H110  1  0.416200  0.028200  0.375500  1
  H  H111  1  0.526800  0.050400  0.300700  1
  H  H112  1  0.962100  0.219600  0.502600  1
  H  H113  1  0.886300  0.272600  0.423000  1
  H  H114  1  1.047800  0.216200  0.416100  1
  H  H115  1  0.992600  0.075200  0.404800  1
  H  H116  1  0.796200  0.043300  0.404800  1
  H  H117  1  0.906900  0.076800  0.491300  1
  H  H118  1  0.213400  0.373600  0.387900  1
  H  H119  1  0.834800  0.371000  0.536400  1
  H  H120  1  0.165200  0.629000  0.463600  1
  H  H121  1  0.786600  0.626400  0.612100  1
  H  H122  1  -0.097900  0.376500  0.310500  1
  H  H123  1  1.146600  0.369500  0.607100  1
  H  H124  1  -0.146600  0.630500  0.392900  1
  H  H125  1  1.097900  0.623500  0.689500  1
  H  H126  1  0.412700  0.929700  0.467300  1
  H  H127  1  0.718600  0.851000  0.634300  1
  H  H128  1  0.209600  0.835300  0.659200  1
  H  H129  1  0.349200  0.790000  0.375800  1
  H  H130  1  0.196500  0.846000  0.396600  1
  H  H131  1  0.328800  0.872100  0.332600  1
  H  H132  1  0.638800  0.899800  0.385600  1
  H  H133  1  0.714300  0.900700  0.486300  1
  H  H134  1  0.674800  0.821900  0.437100  1
  H  H135  1  0.489300  0.808700  0.754000  1
  H  H136  1  0.631500  0.754600  0.719800  1
  H  H137  1  0.697200  0.824900  0.780500  1
  H  H138  1  0.684900  0.956500  0.719800  1
  H  H139  1  0.583800  0.971800  0.624500  1
  H  H140  1  0.473200  0.949600  0.699300  1
  H  H141  1  0.037900  0.780400  0.497400  1
  H  H142  1  0.113700  0.727400  0.577000  1
  H  H143  1  -0.047800  0.783800  0.583900  1
  H  H144  1  0.007400  0.924800  0.595200  1
  H  H145  1  0.203800  0.956700  0.595200  1
  H  H146  1  0.093100  0.923200  0.508700  1
  H  H147  1  -0.087300  0.570300  -0.032700  1
  H  H148  1  0.218600  0.649000  0.134300  1
  H  H149  1  -0.290400  0.664700  0.159200  1
  H  H150  1  -0.150800  0.710000  -0.124200  1
  H  H151  1  -0.303500  0.654000  -0.103400  1
  H  H152  1  -0.171200  0.627900  -0.167400  1
  H  H153  1  0.138800  0.600200  -0.114400  1
  H  H154  1  0.214300  0.599300  -0.013700  1
  H  H155  1  0.174800  0.678100  -0.062900  1
  H  H156  1  -0.010700  0.691300  0.254000  1
  H  H157  1  0.131500  0.745400  0.219800  1
  H  H158  1  0.197200  0.675100  0.280500  1
  H  H159  1  0.184900  0.543500  0.219800  1
  H  H160  1  0.083800  0.528200  0.124500  1
  H  H161  1  -0.026800  0.550400  0.199300  1
  H  H162  1  -0.462100  0.719600  -0.002600  1
  H  H163  1  -0.386300  0.772600  0.077000  1
  H  H164  1  -0.547800  0.716200  0.083900  1
  H  H165  1  -0.492600  0.575200  0.095200  1
  H  H166  1  -0.296200  0.543300  0.095200  1
  H  H167  1  -0.406900  0.576800  0.008700  1
  H  H168  1  0.286600  0.873600  0.112100  1
  H  H169  1  -0.334800  0.871000  -0.036400  1
  H  H170  1  0.334800  1.129000  0.036400  1
  H  H171  1  -0.286600  1.126400  -0.112100  1
  H  H172  1  0.597900  0.876500  0.189500  1
  H  H173  1  -0.646600  0.869500  -0.107100  1
  H  H174  1  0.646600  1.130500  0.107100  1
  H  H175  1  -0.597900  1.123500  -0.189500  1
  H  H176  1  0.087300  1.429700  0.032700  1
  H  H177  1  -0.218600  1.351000  -0.134300  1
  H  H178  1  0.290400  1.335300  -0.159200  1
  H  H179  1  0.150800  1.290000  0.124200  1
  H  H180  1  0.303500  1.346000  0.103400  1
  H  H181  1  0.171200  1.372100  0.167400  1
  H  H182  1  -0.138800  1.399800  0.114400  1
  H  H183  1  -0.214300  1.400700  0.013700  1
  H  H184  1  -0.174800  1.321900  0.062900  1
  H  H185  1  0.010700  1.308700  -0.254000  1
  H  H186  1  -0.131500  1.254600  -0.219800  1
  H  H187  1  -0.197200  1.324900  -0.280500  1
  H  H188  1  -0.184900  1.456500  -0.219800  1
  H  H189  1  -0.083800  1.471800  -0.124500  1
  H  H190  1  0.026800  1.449600  -0.199300  1
  H  H191  1  0.462100  1.280400  0.002600  1
  H  H192  1  0.386300  1.227400  -0.077000  1
  H  H193  1  0.547800  1.283800  -0.083900  1
  H  H194  1  0.492600  1.424800  -0.095200  1
  H  H195  1  0.296200  1.456700  -0.095200  1
  H  H196  1  0.406900  1.423200  -0.008700  1
  Si  Si197  1  0.575960  0.173880  0.435390  1.0
  Si  Si198  1  0.424040  0.826120  0.564610  1
  Si  Si199  1  -0.075960  0.673880  0.064610  1.0
  Si  Si200  1  0.075960  1.326120  -0.064610  1
