# generated using pymatgen
data_SiH33C25
_symmetry_space_group_name_H-M   'P 1'
_cell_length_a   5.89780000
_cell_length_b   14.18660000
_cell_length_c   26.42140000
_cell_angle_alpha   78.67300000
_cell_angle_beta   84.72800000
_cell_angle_gamma   84.50700000
_symmetry_Int_Tables_number   1
_chemical_formula_structural   SiH33C25
_chemical_formula_sum   'Si4 H132 C100'
_cell_volume   2151.60122569
_cell_formula_units_Z   4
loop_
 _symmetry_equiv_pos_site_id
 _symmetry_equiv_pos_as_xyz
  1  'x, y, z'
loop_
 _atom_site_type_symbol
 _atom_site_label
 _atom_site_symmetry_multiplicity
 _atom_site_fract_x
 _atom_site_fract_y
 _atom_site_fract_z
 _atom_site_occupancy
  C  C1  1  0.917000  0.631000  0.057600  1
  C  C2  1  0.551200  0.790700  0.033700  1
  C  C3  1  0.881900  0.782200  0.120500  1
  C  C4  1  0.497500  0.639400  0.131900  1
  C  C5  1  1.079600  0.586800  0.038300  1
  C  C6  1  0.680000  0.824200  -0.019400  1
  C  C7  1  0.774100  0.876800  0.134100  1
  C  C8  1  0.574300  0.588100  0.185400  1
  C  C9  1  1.286300  0.540100  0.018400  1
  C  C10  1  0.891800  0.874100  -0.013800  1
  C  C11  1  0.529800  0.891400  -0.056700  1
  C  C12  1  0.954000  0.934700  0.148800  1
  C  C13  1  0.584300  0.861200  0.177200  1
  C  C14  1  0.375900  0.537700  0.217200  1
  C  C15  1  0.775800  0.516500  0.180500  1
  C  C16  1  1.395500  0.458600  0.049000  1
  C  C17  1  1.386300  0.581100  -0.031300  1
  C  C18  1  1.295100  0.413500  0.097000  1
  C  C19  1  1.613700  0.418900  0.031300  1
  C  C20  1  1.604500  0.541400  -0.049000  1
  C  C21  1  1.270700  0.657200  -0.063400  1
  C  C22  1  1.408300  0.337100  0.129000  1
  C  C23  1  1.713700  0.459900  -0.018400  1
  C  C24  1  1.729300  0.342800  0.063400  1
  C  C25  1  1.704900  0.586500  -0.097000  1
  C  C26  1  1.369000  0.697800  -0.112100  1
  C  C27  1  1.310600  0.293600  0.178400  1
  C  C28  1  1.631000  0.302200  0.112100  1
  C  C29  1  1.920400  0.413200  -0.038300  1
  C  C30  1  1.591700  0.662900  -0.129000  1
  C  C31  1  1.250900  0.774500  -0.146500  1
  C  C32  1  1.428500  0.221900  0.209000  1
  C  C33  1  1.749100  0.225500  0.146500  1
  C  C34  1  2.083000  0.369000  -0.057600  1
  C  C35  1  1.689400  0.706400  -0.178400  1
  C  C36  1  1.350100  0.811900  -0.193300  1
  C  C37  1  1.649900  0.188100  0.193300  1
  C  C38  1  1.571500  0.778100  -0.209000  1
  C  C39  1  2.448800  0.209300  -0.033700  1
  C  C40  1  2.118100  0.217800  -0.120500  1
  C  C41  1  2.502500  0.360600  -0.131900  1
  C  C42  1  2.320000  0.175800  0.019400  1
  C  C43  1  2.225900  0.123200  -0.134100  1
  C  C44  1  2.425700  0.411900  -0.185400  1
  C  C45  1  2.108200  0.125900  0.013800  1
  C  C46  1  2.470200  0.108600  0.056700  1
  C  C47  1  2.046000  0.065300  -0.148800  1
  C  C48  1  2.415700  0.138800  -0.177200  1
  C  C49  1  2.624100  0.462300  -0.217200  1
  C  C50  1  2.224200  0.483500  -0.180500  1
  C  C51  1  0.525500  -0.133300  0.445100  1
  C  C52  1  0.171300  -0.130800  0.366700  1
  C  C53  1  0.590000  -0.278000  0.374300  1
  C  C54  1  0.168000  -0.287000  0.464600  1
  C  C55  1  0.648000  -0.090000  0.464400  1
  C  C56  1  0.268700  -0.077700  0.314600  1
  C  C57  1  0.515000  -0.372400  0.362600  1
  C  C58  1  0.268000  -0.374300  0.501400  1
  C  C59  1  0.818000  -0.043700  0.483300  1
  C  C60  1  0.442800  -0.012100  0.319500  1
  C  C61  1  0.085100  -0.024400  0.281200  1
  C  C62  1  0.712000  -0.423300  0.334000  1
  C  C63  1  0.314000  -0.353500  0.329700  1
  C  C64  1  0.088000  -0.429900  0.533800  1
  C  C65  1  0.437000  -0.344600  0.535300  1
  C  C66  1  0.904800  -0.083600  0.531200  1
  C  C67  1  0.903900  0.041300  0.452600  1
  C  C68  1  0.821400  -0.163600  0.564500  1
  C  C69  1  1.096100  -0.041300  0.547400  1
  C  C70  1  1.095200  0.083600  0.468800  1
  C  C71  1  0.806900  0.086600  0.406200  1
  C  C72  1  0.912000  -0.205700  0.610400  1
  C  C73  1  1.182000  0.043700  0.516700  1
  C  C74  1  1.193100  -0.086600  0.593800  1
  C  C75  1  1.178600  0.163600  0.435500  1
  C  C76  1  0.890000  0.166700  0.375000  1
  C  C77  1  0.826600  -0.287700  0.645200  1
  C  C78  1  1.110000  -0.166700  0.625000  1
  C  C79  1  1.352000  0.090000  0.535600  1
  C  C80  1  1.088000  0.205700  0.389600  1
  C  C81  1  0.792900  0.212900  0.328400  1
  C  C82  1  0.929100  -0.328700  0.688900  1
  C  C83  1  1.207100  -0.212900  0.671600  1
  C  C84  1  1.474500  0.133300  0.554900  1
  C  C85  1  1.173400  0.287700  0.354800  1
  C  C86  1  0.875500  0.291100  0.296900  1
  C  C87  1  1.124500  -0.291100  0.703100  1
  C  C88  1  1.070900  0.328700  0.311100  1
  C  C89  1  1.828700  0.130800  0.633300  1
  C  C90  1  1.410000  0.278000  0.625700  1
  C  C91  1  1.832000  0.287000  0.535400  1
  C  C92  1  1.731300  0.077700  0.685400  1
  C  C93  1  1.485000  0.372400  0.637400  1
  C  C94  1  1.732000  0.374300  0.498600  1
  C  C95  1  1.557200  0.012100  0.680500  1
  C  C96  1  1.914900  0.024400  0.718800  1
  C  C97  1  1.288000  0.423300  0.666000  1
  C  C98  1  1.686000  0.353500  0.670300  1
  C  C99  1  1.912000  0.429900  0.466200  1
  C  C100  1  1.563000  0.344600  0.464700  1
  H  H101  1  0.420700  0.756300  0.027700  1
  H  H102  1  0.486500  0.849100  0.046700  1
  H  H103  1  0.926600  0.739500  0.153000  1
  H  H104  1  1.024200  0.796200  0.098400  1
  H  H105  1  0.360000  0.682900  0.137600  1
  H  H106  1  0.450600  0.589700  0.114200  1
  H  H107  1  0.730900  0.765900  -0.034700  1
  H  H108  1  0.705400  0.915600  0.102500  1
  H  H109  1  0.619000  0.637800  0.203900  1
  H  H110  1  0.960800  0.900600  -0.048200  1
  H  H111  1  1.002300  0.827300  0.005000  1
  H  H112  1  0.848400  0.926400  0.005400  1
  H  H113  1  0.481400  0.950100  -0.043000  1
  H  H114  1  0.395100  0.859200  -0.061000  1
  H  H115  1  0.616000  0.908400  -0.090300  1
  H  H116  1  1.025800  0.897800  0.179300  1
  H  H117  1  0.881500  0.995800  0.156500  1
  H  H118  1  1.070300  0.947700  0.119900  1
  H  H119  1  0.646400  0.821800  0.208400  1
  H  H120  1  0.464300  0.828000  0.166300  1
  H  H121  1  0.519900  0.923700  0.184700  1
  H  H122  1  0.327100  0.490000  0.199100  1
  H  H123  1  0.248100  0.585500  0.221900  1
  H  H124  1  0.425200  0.505200  0.251200  1
  H  H125  1  0.819700  0.485200  0.215100  1
  H  H126  1  0.904100  0.549900  0.161200  1
  H  H127  1  0.735100  0.467700  0.162100  1
  H  H128  1  1.145100  0.435900  0.107900  1
  H  H129  1  1.123100  0.681600  -0.052100  1
  H  H130  1  1.876900  0.318400  0.052100  1
  H  H131  1  1.854900  0.564100  -0.107900  1
  H  H132  1  1.160900  0.315300  0.189900  1
  H  H133  1  1.101900  0.799000  -0.136100  1
  H  H134  1  1.360400  0.193700  0.241800  1
  H  H135  1  1.898100  0.201000  0.136100  1
  H  H136  1  1.839100  0.684700  -0.189900  1
  H  H137  1  1.269100  0.861600  -0.215800  1
  H  H138  1  1.730900  0.138400  0.215800  1
  H  H139  1  1.639600  0.806300  -0.241800  1
  H  H140  1  2.579300  0.243700  -0.027700  1
  H  H141  1  2.513500  0.150900  -0.046700  1
  H  H142  1  2.073400  0.260500  -0.153000  1
  H  H143  1  1.975800  0.203800  -0.098400  1
  H  H144  1  2.640000  0.317100  -0.137600  1
  H  H145  1  2.549400  0.410300  -0.114200  1
  H  H146  1  2.269100  0.234100  0.034700  1
  H  H147  1  2.294600  0.084400  -0.102500  1
  H  H148  1  2.381000  0.362200  -0.203900  1
  H  H149  1  2.039200  0.099400  0.048200  1
  H  H150  1  1.997700  0.172700  -0.005000  1
  H  H151  1  2.151600  0.073600  -0.005400  1
  H  H152  1  2.518600  0.049900  0.043000  1
  H  H153  1  2.604900  0.140800  0.061000  1
  H  H154  1  2.384000  0.091600  0.090300  1
  H  H155  1  1.974200  0.102200  -0.179300  1
  H  H156  1  2.118500  0.004200  -0.156500  1
  H  H157  1  1.929700  0.052300  -0.119900  1
  H  H158  1  2.353600  0.178200  -0.208400  1
  H  H159  1  2.535700  0.172000  -0.166300  1
  H  H160  1  2.480100  0.076300  -0.184700  1
  H  H161  1  2.672900  0.510000  -0.199100  1
  H  H162  1  2.751900  0.414500  -0.221900  1
  H  H163  1  2.574800  0.494800  -0.251200  1
  H  H164  1  2.180300  0.514800  -0.215100  1
  H  H165  1  2.095900  0.450100  -0.161200  1
  H  H166  1  2.264900  0.532300  -0.162100  1
  H  H167  1  0.056300  -0.172000  0.359500  1
  H  H168  1  0.087900  -0.081700  0.384800  1
  H  H169  1  0.631800  -0.235100  0.341100  1
  H  H170  1  0.729200  -0.293800  0.393700  1
  H  H171  1  0.082400  -0.243800  0.486200  1
  H  H172  1  0.053800  -0.310400  0.445600  1
  H  H173  1  0.347400  -0.127900  0.295900  1
  H  H174  1  0.471000  -0.415700  0.396000  1
  H  H175  1  0.355900  -0.418000  0.479800  1
  H  H176  1  0.489700  0.024000  0.285100  1
  H  H177  1  0.575900  -0.049900  0.334800  1
  H  H178  1  0.378100  0.033100  0.341700  1
  H  H179  1  -0.004300  0.022300  0.299400  1
  H  H180  1  -0.015700  -0.070500  0.274000  1
  H  H181  1  0.155900  0.009500  0.248600  1
  H  H182  1  0.843200  -0.437200  0.355300  1
  H  H183  1  0.755000  -0.381600  0.301000  1
  H  H184  1  0.664000  -0.483800  0.327500  1
  H  H185  1  0.186000  -0.320900  0.347600  1
  H  H186  1  0.269000  -0.414800  0.323700  1
  H  H187  1  0.356800  -0.312400  0.296500  1
  H  H188  1  0.159700  -0.484200  0.557500  1
  H  H189  1  -0.006900  -0.454300  0.511500  1
  H  H190  1  -0.007500  -0.387800  0.553900  1
  H  H191  1  0.552000  -0.307200  0.513100  1
  H  H192  1  0.511600  -0.402400  0.555700  1
  H  H193  1  0.353700  -0.305100  0.558600  1
  H  H194  1  0.694100  -0.190600  0.555000  1
  H  H195  1  0.679100  0.060500  0.396300  1
  H  H196  1  1.320900  -0.060500  0.603700  1
  H  H197  1  1.305900  0.190600  0.445000  1
  H  H198  1  0.694800  -0.314000  0.637300  1
  H  H199  1  0.663000  0.187600  0.318900  1
  H  H200  1  0.869200  -0.383700  0.710600  1
  H  H201  1  1.337000  -0.187600  0.681100  1
  H  H202  1  1.305200  0.314000  0.362700  1
  H  H203  1  0.805200  0.320200  0.266000  1
  H  H204  1  1.194800  -0.320200  0.734000  1
  H  H205  1  1.130800  0.383700  0.289400  1
  H  H206  1  1.943700  0.172000  0.640500  1
  H  H207  1  1.912100  0.081700  0.615200  1
  H  H208  1  1.368200  0.235100  0.658900  1
  H  H209  1  1.270800  0.293800  0.606300  1
  H  H210  1  1.917600  0.243800  0.513800  1
  H  H211  1  1.946200  0.310400  0.554400  1
  H  H212  1  1.652600  0.127900  0.704100  1
  H  H213  1  1.529000  0.415700  0.604000  1
  H  H214  1  1.644100  0.418000  0.520200  1
  H  H215  1  1.510300  -0.024000  0.714900  1
  H  H216  1  1.424100  0.049900  0.665200  1
  H  H217  1  1.621900  -0.033100  0.658300  1
  H  H218  1  2.004300  -0.022300  0.700600  1
  H  H219  1  2.015700  0.070500  0.726000  1
  H  H220  1  1.844100  -0.009500  0.751400  1
  H  H221  1  1.156800  0.437200  0.644700  1
  H  H222  1  1.245000  0.381600  0.699000  1
  H  H223  1  1.336000  0.483800  0.672500  1
  H  H224  1  1.814000  0.320900  0.652400  1
  H  H225  1  1.731000  0.414800  0.676300  1
  H  H226  1  1.643200  0.312400  0.703500  1
  H  H227  1  1.840300  0.484200  0.442500  1
  H  H228  1  2.006900  0.454300  0.488500  1
  H  H229  1  2.007500  0.387800  0.446100  1
  H  H230  1  1.448000  0.307200  0.486900  1
  H  H231  1  1.488400  0.402400  0.444300  1
  H  H232  1  1.646300  0.305100  0.441400  1
  Si  Si233  1  0.707500  0.711780  0.086370  1.0
  Si  Si234  1  2.292500  0.288220  -0.086370  1
  Si  Si235  1  0.364000  -0.208880  0.413600  1.0
  Si  Si236  1  1.636000  0.208880  0.586400  1
