# generated using pymatgen
data_SiH29C25Cl4
_symmetry_space_group_name_H-M   'P 1'
_cell_length_a   9.24560000
_cell_length_b   14.02980000
_cell_length_c   20.57760000
_cell_angle_alpha   100.91500000
_cell_angle_beta   102.57100000
_cell_angle_gamma   102.64700000
_symmetry_Int_Tables_number   1
_chemical_formula_structural   SiH29C25Cl4
_chemical_formula_sum   'Si4 H116 C100 Cl16'
_cell_volume   2462.02758971
_cell_formula_units_Z   4
loop_
 _symmetry_equiv_pos_site_id
 _symmetry_equiv_pos_as_xyz
  1  'x, y, z'
loop_
 _atom_site_type_symbol
 _atom_site_label
 _atom_site_symmetry_multiplicity
 _atom_site_fract_x
 _atom_site_fract_y
 _atom_site_fract_z
 _atom_site_occupancy
  C  C1  1  0.651600  0.791200  0.723000  1
  C  C2  1  0.818200  0.799900  0.869400  1
  C  C3  1  0.747200  0.986700  0.830700  1
  C  C4  1  0.474000  0.803600  0.824500  1
  C  C5  1  0.625200  0.756100  0.662000  1
  C  C6  1  0.800800  0.687500  0.844500  1
  C  C7  1  0.787700  1.044500  0.908600  1
  C  C8  1  0.350200  0.838400  0.778200  1
  C  C9  1  0.593500  0.722200  0.588700  1
  C  C10  1  0.926900  0.652500  0.888200  1
  C  C11  1  0.645300  1.067100  0.927600  1
  C  C12  1  0.191400  0.790900  0.781300  1
  C  C13  1  0.510500  0.771700  0.546800  1
  C  C14  1  0.650500  0.643200  0.560100  1
  C  C15  1  0.912900  0.651400  0.958900  1
  C  C16  1  0.676100  1.119400  1.001800  1
  C  C17  1  0.068800  0.821100  0.733900  1
  C  C18  1  0.454000  0.849500  0.576300  1
  C  C19  1  0.486100  0.743800  0.474200  1
  C  C20  1  0.625300  0.614800  0.487000  1
  C  C21  1  0.730900  0.591500  0.600300  1
  C  C22  1  0.373400  0.900100  0.535600  1
  C  C23  1  0.406200  0.794800  0.432400  1
  C  C24  1  0.546900  0.666667  0.444800  1
  C  C25  1  0.680400  0.535100  0.456500  1
  C  C26  1  0.787400  0.514300  0.572800  1
  C  C27  1  0.311500  0.978900  0.563700  1
  C  C28  1  0.347600  0.871800  0.461300  1
  C  C29  1  0.537500  0.646000  0.372300  1
  C  C30  1  0.761400  0.485100  0.498100  1
  C  C31  1  0.873000  0.462400  0.612600  1
  C  C32  1  0.233500  1.027300  0.522900  1
  C  C33  1  0.265500  0.925400  0.421500  1
  C  C34  1  0.541700  0.632700  0.313700  1
  C  C35  1  0.819700  0.405700  0.470000  1
  C  C36  1  0.928000  0.387100  0.582400  1
  C  C37  1  0.209100  1.000300  0.450600  1
  C  C38  1  0.899500  0.358000  0.509200  1
  C  C39  1  0.619600  0.515600  0.193600  1
  C  C40  1  0.362100  0.626000  0.174400  1
  C  C41  1  0.702400  0.749300  0.230500  1
  C  C42  1  0.605500  0.492500  0.116200  1
  C  C43  1  0.302500  0.712800  0.204800  1
  C  C44  1  0.692000  0.782600  0.164200  1
  C  C45  1  0.673400  0.409800  0.090600  1
  C  C46  1  0.158200  0.726400  0.158800  1
  C  C47  1  0.808100  0.881200  0.170700  1
  C  C48  1  0.662100  0.391400  0.014100  1
  C  C49  1  0.021100  0.639500  0.145500  1
  C  C50  1  0.792700  0.911700  0.103600  1
  C  C51  1  0.348400  0.208800  0.277000  1
  C  C52  1  0.181800  0.200100  0.130600  1
  C  C53  1  0.252800  0.013300  0.169300  1
  C  C54  1  0.526000  0.196400  0.175500  1
  C  C55  1  0.374800  0.243900  0.338000  1
  C  C56  1  0.199200  0.312500  0.155500  1
  C  C57  1  0.212300  -0.044500  0.091400  1
  C  C58  1  0.649800  0.161600  0.221800  1
  C  C59  1  0.406500  0.277800  0.411300  1
  C  C60  1  0.073100  0.347500  0.111800  1
  C  C61  1  0.354700  -0.067100  0.072400  1
  C  C62  1  0.808600  0.209100  0.218700  1
  C  C63  1  0.489500  0.228300  0.453200  1
  C  C64  1  0.349500  0.356800  0.439900  1
  C  C65  1  0.087100  0.348600  0.041100  1
  C  C66  1  0.323900  -0.119400  -0.001800  1
  C  C67  1  0.931200  0.178900  0.266100  1
  C  C68  1  0.546000  0.150500  0.423700  1
  C  C69  1  0.513900  0.256200  0.525800  1
  C  C70  1  0.374700  0.385200  0.513000  1
  C  C71  1  0.269100  0.408500  0.399700  1
  C  C72  1  0.626600  0.099900  0.464400  1
  C  C73  1  0.593800  0.205200  0.567600  1
  C  C74  1  0.453100  0.333333  0.555200  1
  C  C75  1  0.319600  0.464900  0.543500  1
  C  C76  1  0.212600  0.485700  0.427200  1
  C  C77  1  0.688500  0.021100  0.436300  1
  C  C78  1  0.652400  0.128200  0.538700  1
  C  C79  1  0.462500  0.354000  0.627700  1
  C  C80  1  0.238600  0.514900  0.501900  1
  C  C81  1  0.127000  0.537600  0.387400  1
  C  C82  1  0.766500  -0.027300  0.477100  1
  C  C83  1  0.734500  0.074600  0.578500  1
  C  C84  1  0.458300  0.367300  0.686300  1
  C  C85  1  0.180300  0.594300  0.530000  1
  C  C86  1  0.072000  0.612900  0.417600  1
  C  C87  1  0.790900  -0.000300  0.549400  1
  C  C88  1  0.100500  0.642000  0.490800  1
  C  C89  1  0.380400  0.484400  0.806400  1
  C  C90  1  0.637900  0.374000  0.825600  1
  C  C91  1  0.297600  0.250700  0.769500  1
  C  C92  1  0.394500  0.507500  0.883800  1
  C  C93  1  0.697500  0.287200  0.795200  1
  C  C94  1  0.308000  0.217400  0.835800  1
  C  C95  1  0.326600  0.590200  0.909400  1
  C  C96  1  0.841800  0.273600  0.841200  1
  C  C97  1  0.191900  0.118800  0.829300  1
  C  C98  1  0.337900  0.608600  0.985900  1
  C  C99  1  0.978900  0.360500  0.854500  1
  C  C100  1  0.207300  0.088300  0.896400  1
  Cl  Cl101  1  0.337800  1.009850  0.651850  1
  Cl  Cl102  1  0.907900  0.496920  0.700680  1
  Cl  Cl103  1  0.165200  1.123420  0.559150  1
  Cl  Cl104  1  0.235200  0.893460  0.333120  1
  Cl  Cl105  1  0.786100  0.369900  0.381170  1
  Cl  Cl106  1  1.032700  0.326420  0.632430  1
  Cl  Cl107  1  0.110900  1.063900  0.401090  1
  Cl  Cl108  1  0.972400  0.263400  0.474430  1
  Cl  Cl109  1  0.662200  -0.009850  0.348150  1
  Cl  Cl110  1  0.092100  0.503080  0.299320  1
  Cl  Cl111  1  0.834800  -0.123420  0.440850  1
  Cl  Cl112  1  0.764800  0.106540  0.666880  1
  Cl  Cl113  1  0.213900  0.630100  0.618830  1
  Cl  Cl114  1  -0.032700  0.673580  0.367570  1
  Cl  Cl115  1  0.889100  -0.063900  0.598910  1
  Cl  Cl116  1  0.027600  0.736600  0.525570  1
  H  H117  1  0.922800  0.837900  0.870500  1
  H  H118  1  0.808300  0.814000  0.917000  1
  H  H119  1  0.840800  1.001800  0.814400  1
  H  H120  1  0.669000  1.012400  0.803600  1
  H  H121  1  0.443300  0.729000  0.813900  1
  H  H122  1  0.476700  0.829200  0.873100  1
  H  H123  1  0.805300  0.672500  0.796100  1
  H  H124  1  0.698700  0.649100  0.846000  1
  H  H125  1  0.829300  1.003000  0.937900  1
  H  H126  1  0.868100  1.108500  0.917500  1
  H  H127  1  0.372100  0.912700  0.793100  1
  H  H128  1  0.356000  0.820800  0.730100  1
  H  H129  1  0.923800  0.583600  0.864100  1
  H  H130  1  1.028600  0.697500  0.891800  1
  H  H131  1  0.605800  1.109900  0.898800  1
  H  H132  1  0.564000  1.003000  0.916900  1
  H  H133  1  0.184500  0.811000  0.829100  1
  H  H134  1  0.171400  0.716600  0.768400  1
  H  H135  1  0.928200  0.720500  0.985200  1
  H  H136  1  0.991000  0.622600  0.981900  1
  H  H137  1  0.810200  0.610500  0.956200  1
  H  H138  1  0.686700  1.071000  1.030000  1
  H  H139  1  0.590400  1.147200  1.008300  1
  H  H140  1  0.771500  1.174200  1.015800  1
  H  H141  1  0.087200  0.894600  0.746700  1
  H  H142  1  -0.032900  0.788700  0.737900  1
  H  H143  1  0.073000  0.799700  0.686300  1
  H  H144  1  0.470900  0.868100  0.624800  1
  H  H145  1  0.747400  0.610400  0.648700  1
  H  H146  1  0.392000  0.776900  0.384000  1
  H  H147  1  0.662300  0.515900  0.408000  1
  H  H148  1  0.728200  0.525900  0.218800  1
  H  H149  1  0.556800  0.456400  0.203900  1
  H  H150  1  0.366500  0.628800  0.127100  1
  H  H151  1  0.288700  0.561300  0.171400  1
  H  H152  1  0.691500  0.804100  0.265700  1
  H  H153  1  0.806600  0.740500  0.246600  1
  H  H154  1  0.495000  0.473800  0.091000  1
  H  H155  1  0.656700  0.554700  0.105100  1
  H  H156  1  0.385700  0.776200  0.216400  1
  H  H157  1  0.280300  0.702200  0.248200  1
  H  H158  1  0.587200  0.789800  0.147200  1
  H  H159  1  0.706900  0.729200  0.129400  1
  H  H160  1  0.619700  0.346700  0.099800  1
  H  H161  1  0.783100  0.427200  0.116500  1
  H  H162  1  0.136500  0.788700  0.181100  1
  H  H163  1  0.177700  0.734500  0.114500  1
  H  H164  1  0.794000  0.935100  0.205500  1
  H  H165  1  0.913400  0.874300  0.187000  1
  H  H166  1  0.553600  0.370600  -0.012200  1
  H  H167  1  0.710700  0.338000  0.000800  1
  H  H168  1  0.714800  0.453500  0.004400  1
  H  H169  1  0.043700  0.577100  0.125400  1
  H  H170  1  -0.066500  0.649300  0.113500  1
  H  H171  1  -0.004100  0.634700  0.188800  1
  H  H172  1  0.821900  0.863900  0.071000  1
  H  H173  1  0.860500  0.979600  0.111500  1
  H  H174  1  0.685800  0.911600  0.084600  1
  H  H175  1  0.077200  0.162100  0.129500  1
  H  H176  1  0.191700  0.186000  0.083000  1
  H  H177  1  0.159200  -0.001800  0.185600  1
  H  H178  1  0.331000  -0.012400  0.196400  1
  H  H179  1  0.556700  0.271000  0.186100  1
  H  H180  1  0.523300  0.170800  0.126900  1
  H  H181  1  0.194700  0.327500  0.203900  1
  H  H182  1  0.301300  0.350900  0.154000  1
  H  H183  1  0.170700  -0.003000  0.062100  1
  H  H184  1  0.131900  -0.108500  0.082500  1
  H  H185  1  0.627900  0.087300  0.206900  1
  H  H186  1  0.644000  0.179200  0.269900  1
  H  H187  1  0.076200  0.416400  0.135900  1
  H  H188  1  -0.028600  0.302500  0.108200  1
  H  H189  1  0.394200  -0.109900  0.101200  1
  H  H190  1  0.436000  -0.003000  0.083100  1
  H  H191  1  0.815500  0.189000  0.170900  1
  H  H192  1  0.828600  0.283400  0.231600  1
  H  H193  1  0.071800  0.279500  0.014800  1
  H  H194  1  0.009000  0.377400  0.018100  1
  H  H195  1  0.189800  0.389500  0.043800  1
  H  H196  1  0.313300  -0.071000  -0.030000  1
  H  H197  1  0.409600  -0.147200  -0.008300  1
  H  H198  1  0.228500  -0.174200  -0.015800  1
  H  H199  1  0.912800  0.105400  0.253300  1
  H  H200  1  1.032900  0.211300  0.262100  1
  H  H201  1  0.927000  0.200300  0.313700  1
  H  H202  1  0.529100  0.131900  0.375200  1
  H  H203  1  0.252600  0.389600  0.351300  1
  H  H204  1  0.608000  0.223100  0.616000  1
  H  H205  1  0.337700  0.484100  0.592000  1
  H  H206  1  0.271800  0.474100  0.781200  1
  H  H207  1  0.443200  0.543600  0.796100  1
  H  H208  1  0.633500  0.371200  0.872900  1
  H  H209  1  0.711300  0.438700  0.828600  1
  H  H210  1  0.308500  0.195900  0.734300  1
  H  H211  1  0.193400  0.259500  0.753400  1
  H  H212  1  0.505000  0.526200  0.909000  1
  H  H213  1  0.343300  0.445300  0.894900  1
  H  H214  1  0.614300  0.223800  0.783600  1
  H  H215  1  0.719700  0.297800  0.751800  1
  H  H216  1  0.412800  0.210200  0.852800  1
  H  H217  1  0.293100  0.270800  0.870600  1
  H  H218  1  0.380300  0.653300  0.900200  1
  H  H219  1  0.216900  0.572800  0.883500  1
  H  H220  1  0.863500  0.211300  0.818900  1
  H  H221  1  0.822300  0.265500  0.885500  1
  H  H222  1  0.206000  0.064900  0.794500  1
  H  H223  1  0.086600  0.125700  0.813000  1
  H  H224  1  0.446400  0.629400  1.012200  1
  H  H225  1  0.289300  0.662000  0.999200  1
  H  H226  1  0.285200  0.546500  0.995600  1
  H  H227  1  0.956300  0.422900  0.874600  1
  H  H228  1  1.066500  0.350700  0.886500  1
  H  H229  1  1.004100  0.365300  0.811200  1
  H  H230  1  0.178100  0.136100  0.929000  1
  H  H231  1  0.139500  0.020400  0.888500  1
  H  H232  1  0.314200  0.088400  0.915400  1
  Si  Si233  1  0.672300  0.846930  0.814190  1.0
  Si  Si234  1  0.556400  0.629170  0.225800  1
  Si  Si235  1  0.327700  0.153070  0.185810  1.0
  Si  Si236  1  0.443600  0.370830  0.774200  1
