# generated using pymatgen
data_SiH25C20S
_symmetry_space_group_name_H-M   'P 1'
_cell_length_a   7.41550000
_cell_length_b   11.22950000
_cell_length_c   12.00440000
_cell_angle_alpha   73.61030000
_cell_angle_beta   76.79600000
_cell_angle_gamma   74.42490000
_symmetry_Int_Tables_number   1
_chemical_formula_structural   SiH25C20S
_chemical_formula_sum   'Si2 H50 C40 S2'
_cell_volume   911.10757427
_cell_formula_units_Z   2
loop_
 _symmetry_equiv_pos_site_id
 _symmetry_equiv_pos_as_xyz
  1  'x, y, z'
loop_
 _atom_site_type_symbol
 _atom_site_label
 _atom_site_symmetry_multiplicity
 _atom_site_fract_x
 _atom_site_fract_y
 _atom_site_fract_z
 _atom_site_occupancy
  C  C1  1  0.157600  0.615500  0.097220  1
  C  C2  1  0.311200  0.358600  0.037210  1
  C  C3  1  0.378900  0.404500  0.262660  1
  C  C4  1  -0.025800  0.400900  0.235000  1
  C  C5  1  0.113700  0.730100  0.065400  1
  C  C6  1  0.347300  0.213400  0.079600  1
  C  C7  1  0.312800  0.465100  0.368100  1
  C  C8  1  -0.152600  0.485400  0.314600  1
  C  C9  1  0.057500  0.866330  0.032130  1
  C  C10  1  -0.027400  0.933200  0.120820  1
  C  C11  1  0.086000  0.930230  -0.088380  1
  C  C12  1  -0.054900  0.869500  0.242010  1
  C  C13  1  -0.086000  1.069770  0.088380  1
  C  C14  1  0.027400  1.066800  -0.120820  1
  C  C15  1  0.169800  0.862700  -0.177650  1
  C  C16  1  -0.129000  0.933700  0.325700  1
  C  C17  1  -0.057500  1.133670  -0.032130  1
  C  C18  1  -0.169800  1.137300  0.177650  1
  C  C19  1  0.054900  1.130500  -0.242010  1
  C  C20  1  0.190000  0.930400  -0.298500  1
  C  C21  1  -0.190000  1.069600  0.298500  1
  C  C22  1  -0.113700  1.269900  -0.065400  1
  C  C23  1  0.129000  1.066300  -0.325700  1
  C  C24  1  0.265600  0.882200  -0.402000  1
  C  C25  1  -0.265600  1.117800  0.402000  1
  C  C26  1  -0.272000  1.027900  0.503100  1
  C  C27  1  -0.157600  1.384500  -0.097220  1
  C  C28  1  0.272000  0.972100  -0.503100  1
  C  C29  1  -0.330800  1.032900  0.628670  1
  C  C30  1  0.330800  0.967100  -0.628670  1
  C  C31  1  -0.396700  1.169300  0.644900  1
  C  C32  1  -0.311200  1.641400  -0.037210  1
  C  C33  1  -0.378900  1.595500  -0.262660  1
  C  C34  1  0.025800  1.599100  -0.235000  1
  C  C35  1  0.396700  0.830700  -0.644900  1
  C  C36  1  -0.463200  1.184100  0.769200  1
  C  C37  1  -0.347300  1.786600  -0.079600  1
  C  C38  1  -0.312800  1.534900  -0.368100  1
  C  C39  1  0.152600  1.514600  -0.314600  1
  C  C40  1  0.463200  0.815900  -0.769200  1
  H  H41  1  0.223900  0.387000  -0.021000  1
  H  H42  1  0.432700  0.383100  -0.003100  1
  H  H43  1  0.411300  0.311000  0.292700  1
  H  H44  1  0.496900  0.431000  0.217700  1
  H  H45  1  -0.097500  0.402500  0.174200  1
  H  H46  1  -0.000100  0.312400  0.283000  1
  H  H47  1  0.436600  0.184200  0.135500  1
  H  H48  1  0.400900  0.174900  0.012000  1
  H  H49  1  0.227200  0.188200  0.118200  1
  H  H50  1  0.281200  0.557900  0.340300  1
  H  H51  1  0.414500  0.440600  0.415300  1
  H  H52  1  0.200300  0.435800  0.416600  1
  H  H53  1  -0.088800  0.478800  0.379800  1
  H  H54  1  -0.272800  0.457900  0.345900  1
  H  H55  1  -0.177700  0.573900  0.269100  1
  H  H56  1  -0.019500  0.779300  0.263700  1
  H  H57  1  0.212300  0.772800  -0.157200  1
  H  H58  1  -0.212300  1.227200  0.157200  1
  H  H59  1  0.019500  1.220700  -0.263700  1
  H  H60  1  0.307600  0.793900  -0.399400  1
  H  H61  1  -0.307600  1.206100  0.399400  1
  H  H62  1  -0.222700  0.988200  0.671100  1
  H  H63  1  -0.435400  0.987600  0.664100  1
  H  H64  1  0.222700  1.011800  -0.671100  1
  H  H65  1  0.435400  1.012400  -0.664100  1
  H  H66  1  -0.290500  1.213100  0.609700  1
  H  H67  1  -0.501600  1.213800  0.599700  1
  H  H68  1  -0.223900  1.613000  0.021000  1
  H  H69  1  -0.432700  1.616900  0.003100  1
  H  H70  1  -0.411300  1.689000  -0.292700  1
  H  H71  1  -0.496900  1.569000  -0.217700  1
  H  H72  1  0.097500  1.597500  -0.174200  1
  H  H73  1  0.000100  1.687600  -0.283000  1
  H  H74  1  0.290500  0.786900  -0.609700  1
  H  H75  1  0.501600  0.786200  -0.599700  1
  H  H76  1  -0.574900  1.147100  0.803700  1
  H  H77  1  -0.496500  1.274600  0.769400  1
  H  H78  1  -0.361500  1.140100  0.815700  1
  H  H79  1  -0.436600  1.815800  -0.135500  1
  H  H80  1  -0.400900  1.825100  -0.012000  1
  H  H81  1  -0.227200  1.811800  -0.118200  1
  H  H82  1  -0.281200  1.442100  -0.340300  1
  H  H83  1  -0.414500  1.559400  -0.415300  1
  H  H84  1  -0.200300  1.564200  -0.416600  1
  H  H85  1  0.088800  1.521200  -0.379800  1
  H  H86  1  0.272800  1.542100  -0.345900  1
  H  H87  1  0.177700  1.426100  -0.269100  1
  H  H88  1  0.574900  0.852900  -0.803700  1
  H  H89  1  0.496500  0.725400  -0.769400  1
  H  H90  1  0.361500  0.859900  -0.815700  1
  S  S91  1  -0.177350  0.873910  0.478760  1
  S  S92  1  0.177350  1.126090  -0.478760  1
  Si  Si93  1  0.207550  0.442360  0.158640  1.0
  Si  Si94  1  -0.207550  1.557640  -0.158640  1
