# generated using pymatgen
data_SiH18C17SF
_symmetry_space_group_name_H-M   'P 1'
_cell_length_a   7.15560000
_cell_length_b   32.35840000
_cell_length_c   7.32920000
_cell_angle_alpha   90.00000000
_cell_angle_beta   109.46800000
_cell_angle_gamma   90.00000000
_symmetry_Int_Tables_number   1
_chemical_formula_structural   SiH18C17SF
_chemical_formula_sum   'Si4 H72 C68 S4 F4'
_cell_volume   1600.00756675
_cell_formula_units_Z   4
loop_
 _symmetry_equiv_pos_site_id
 _symmetry_equiv_pos_as_xyz
  1  'x, y, z'
loop_
 _atom_site_type_symbol
 _atom_site_label
 _atom_site_symmetry_multiplicity
 _atom_site_fract_x
 _atom_site_fract_y
 _atom_site_fract_z
 _atom_site_occupancy
  C  C1  1  0.521500  0.386880  0.272100  1
  C  C2  1  0.509600  0.336320  -0.079500  1
  C  C3  1  0.268000  0.310400  0.163000  1
  C  C4  1  0.721100  0.304860  0.335500  1
  C  C5  1  0.523000  0.420830  0.339600  1
  C  C6  1  0.356500  0.364900  -0.215400  1
  C  C7  1  0.213800  0.268000  0.059900  1
  C  C8  1  0.756200  0.306890  0.549900  1
  C  C9  1  0.515200  0.460910  0.420100  1
  C  C10  1  0.610700  0.467610  0.620200  1
  C  C11  1  0.407300  0.492860  0.297200  1
  C  C12  1  0.725700  0.436150  0.742600  1
  C  C13  1  0.592700  0.507140  0.702800  1
  C  C14  1  0.389300  0.532390  0.379800  1
  C  C15  1  0.318400  0.486660  0.095600  1
  C  C16  1  0.811000  0.443500  0.935400  1
  C  C17  1  0.484800  0.539090  0.579900  1
  C  C18  1  0.681600  0.513340  0.904400  1
  C  C19  1  0.274300  0.563850  0.257400  1
  C  C20  1  0.212000  0.517760  -0.019400  1
  C  C21  1  0.788000  0.482240  1.019400  1
  C  C22  1  0.477000  0.579170  0.660400  1
  C  C23  1  0.189000  0.556500  0.064600  1
  C  C24  1  0.113000  0.518400  -0.228500  1
  C  C25  1  0.887000  0.481600  1.228500  1
  C  C26  1  0.976300  0.446060  1.285300  1
  C  C27  1  0.478500  0.613120  0.727900  1
  C  C28  1  0.023700  0.553940  -0.285300  1
  C  C29  1  0.490400  0.663680  1.079500  1
  C  C30  1  0.732000  0.689600  0.837000  1
  C  C31  1  0.278900  0.695140  0.664500  1
  C  C32  1  0.643500  0.635100  1.215400  1
  C  C33  1  0.786200  0.732000  0.940100  1
  C  C34  1  0.243800  0.693110  0.450100  1
  C  C35  1  0.478500  0.886880  0.227900  1
  C  C36  1  0.490400  0.836320  0.579500  1
  C  C37  1  0.732000  0.810400  0.337000  1
  C  C38  1  0.278900  0.804860  0.164500  1
  C  C39  1  0.477000  0.920830  0.160400  1
  C  C40  1  0.643500  0.864900  0.715400  1
  C  C41  1  0.786200  0.768000  0.440100  1
  C  C42  1  0.243800  0.806890  -0.049900  1
  C  C43  1  0.484800  0.960910  0.079900  1
  C  C44  1  0.389300  0.967610  -0.120200  1
  C  C45  1  0.592700  0.992860  0.202800  1
  C  C46  1  0.274300  0.936150  -0.242600  1
  C  C47  1  0.407300  1.007140  -0.202800  1
  C  C48  1  0.610700  1.032390  0.120200  1
  C  C49  1  0.681600  0.986660  0.404400  1
  C  C50  1  0.189000  0.943500  -0.435400  1
  C  C51  1  0.515200  1.039090  -0.079900  1
  C  C52  1  0.318400  1.013340  -0.404400  1
  C  C53  1  0.725700  1.063850  0.242600  1
  C  C54  1  0.788000  1.017760  0.519400  1
  C  C55  1  0.212000  0.982240  -0.519400  1
  C  C56  1  0.523000  1.079170  -0.160400  1
  C  C57  1  0.811000  1.056500  0.435400  1
  C  C58  1  0.887000  1.018400  0.728500  1
  C  C59  1  0.113000  0.981600  -0.728500  1
  C  C60  1  0.023700  0.946060  -0.785300  1
  C  C61  1  0.521500  1.113120  -0.227900  1
  C  C62  1  0.976300  1.053940  0.785300  1
  C  C63  1  0.509600  1.163680  -0.579500  1
  C  C64  1  0.268000  1.189600  -0.337000  1
  C  C65  1  0.721100  1.195140  -0.164500  1
  C  C66  1  0.356500  1.135100  -0.715400  1
  C  C67  1  0.213800  1.232000  -0.440100  1
  C  C68  1  0.756200  1.193110  0.049900  1
  F  F69  1  1.080000  0.434780  1.468000  1
  F  F70  1  -0.080000  0.565220  -0.468000  1
  F  F71  1  -0.080000  0.934780  -0.968000  1
  F  F72  1  1.080000  1.065220  0.968000  1
  H  H73  1  0.643100  0.345300  -0.075800  1
  H  H74  1  0.488300  0.308000  -0.134000  1
  H  H75  1  0.269100  0.307100  0.297900  1
  H  H76  1  0.161000  0.330100  0.098500  1
  H  H77  1  0.704100  0.275500  0.295800  1
  H  H78  1  0.842200  0.314900  0.312900  1
  H  H79  1  0.223200  0.356100  -0.222300  1
  H  H80  1  0.368100  0.363700  -0.344800  1
  H  H81  1  0.379600  0.393300  -0.166600  1
  H  H82  1  0.204200  0.270900  -0.076100  1
  H  H83  1  0.086100  0.258700  0.067000  1
  H  H84  1  0.316600  0.247700  0.123300  1
  H  H85  1  0.765100  0.335900  0.591000  1
  H  H86  1  0.880300  0.292700  0.620100  1
  H  H87  1  0.646000  0.293500  0.578000  1
  H  H88  1  0.742800  0.410200  0.690000  1
  H  H89  1  0.332500  0.460800  0.039800  1
  H  H90  1  0.667500  0.539200  0.960200  1
  H  H91  1  0.257200  0.589800  0.310000  1
  H  H92  1  0.112500  0.496000  -0.312500  1
  H  H93  1  0.887500  0.504000  1.312500  1
  H  H94  1  0.356900  0.654700  1.075800  1
  H  H95  1  0.511700  0.692000  1.134000  1
  H  H96  1  0.730900  0.692900  0.702100  1
  H  H97  1  0.839000  0.669900  0.901500  1
  H  H98  1  0.295900  0.724500  0.704200  1
  H  H99  1  0.157800  0.685100  0.687100  1
  H  H100  1  0.776800  0.643900  1.222300  1
  H  H101  1  0.631900  0.636300  1.344800  1
  H  H102  1  0.620400  0.606700  1.166600  1
  H  H103  1  0.795800  0.729100  1.076100  1
  H  H104  1  0.913900  0.741300  0.933000  1
  H  H105  1  0.683400  0.752300  0.876700  1
  H  H106  1  0.234900  0.664100  0.409000  1
  H  H107  1  0.119700  0.707300  0.379900  1
  H  H108  1  0.354000  0.706500  0.422000  1
  H  H109  1  0.356900  0.845300  0.575800  1
  H  H110  1  0.511700  0.808000  0.634000  1
  H  H111  1  0.730900  0.807100  0.202100  1
  H  H112  1  0.839000  0.830100  0.401500  1
  H  H113  1  0.295900  0.775500  0.204200  1
  H  H114  1  0.157800  0.814900  0.187100  1
  H  H115  1  0.776800  0.856100  0.722300  1
  H  H116  1  0.631900  0.863700  0.844800  1
  H  H117  1  0.620400  0.893300  0.666600  1
  H  H118  1  0.795800  0.770900  0.576100  1
  H  H119  1  0.913900  0.758700  0.433000  1
  H  H120  1  0.683400  0.747700  0.376700  1
  H  H121  1  0.234900  0.835900  -0.091000  1
  H  H122  1  0.119700  0.792700  -0.120100  1
  H  H123  1  0.354000  0.793500  -0.078000  1
  H  H124  1  0.257200  0.910200  -0.190000  1
  H  H125  1  0.667500  0.960800  0.460200  1
  H  H126  1  0.332500  1.039200  -0.460200  1
  H  H127  1  0.742800  1.089800  0.190000  1
  H  H128  1  0.887500  0.996000  0.812500  1
  H  H129  1  0.112500  1.004000  -0.812500  1
  H  H130  1  0.643100  1.154700  -0.575800  1
  H  H131  1  0.488300  1.192000  -0.634000  1
  H  H132  1  0.269100  1.192900  -0.202100  1
  H  H133  1  0.161000  1.169900  -0.401500  1
  H  H134  1  0.704100  1.224500  -0.204200  1
  H  H135  1  0.842200  1.185100  -0.187100  1
  H  H136  1  0.223200  1.143900  -0.722300  1
  H  H137  1  0.368100  1.136300  -0.844800  1
  H  H138  1  0.379600  1.106700  -0.666600  1
  H  H139  1  0.204200  1.229100  -0.576100  1
  H  H140  1  0.086100  1.241300  -0.433000  1
  H  H141  1  0.316600  1.252300  -0.376700  1
  H  H142  1  0.765100  1.164100  0.091000  1
  H  H143  1  0.880300  1.207300  0.120100  1
  H  H144  1  0.646000  1.206500  0.078000  1
  S  S145  1  0.958000  0.408830  1.106800  1
  S  S146  1  0.042000  0.591170  -0.106800  1
  S  S147  1  0.042000  0.908830  -0.606800  1
  S  S148  1  0.958000  1.091170  0.606800  1
  Si  Si149  1  0.505870  0.334270  0.173480  1.0
  Si  Si150  1  0.494130  0.665730  0.826520  1
  Si  Si151  1  0.494130  0.834270  0.326520  1.0
  Si  Si152  1  0.505870  1.165730  -0.326520  1
