# generated using pymatgen
data_SiH15C16
_symmetry_space_group_name_H-M   'P 1'
_cell_length_a   5.83300000
_cell_length_b   10.14600000
_cell_length_c   11.64200000
_cell_angle_alpha   76.25000000
_cell_angle_beta   76.93000000
_cell_angle_gamma   84.99000000
_symmetry_Int_Tables_number   1
_chemical_formula_structural   SiH15C16
_chemical_formula_sum   'Si2 H30 C32'
_cell_volume   651.49945891
_cell_formula_units_Z   2
loop_
 _symmetry_equiv_pos_site_id
 _symmetry_equiv_pos_as_xyz
  1  'x, y, z'
loop_
 _atom_site_type_symbol
 _atom_site_label
 _atom_site_symmetry_multiplicity
 _atom_site_fract_x
 _atom_site_fract_y
 _atom_site_fract_z
 _atom_site_occupancy
  C  C1  1  0.017000  0.694700  0.764450  1
  C  C2  1  0.300900  0.905400  0.804780  1
  C  C3  1  0.259900  0.627400  0.970900  1
  C  C4  1  -0.168300  0.824300  0.978500  1
  C  C5  1  -0.001600  0.640290  0.685500  1
  C  C6  1  -0.004000  0.570690  0.592470  1
  C  C7  1  0.159400  0.459830  0.579620  1
  C  C8  1  -0.163800  0.611550  0.514280  1
  C  C9  1  0.319400  0.417870  0.656460  1
  C  C10  1  0.163800  0.388450  0.485720  1
  C  C11  1  -0.159400  0.540170  0.420380  1
  C  C12  1  -0.328300  0.720940  0.525060  1
  C  C13  1  0.479800  0.310240  0.644670  1
  C  C14  1  0.004000  0.429310  0.407530  1
  C  C15  1  0.328300  0.279060  0.474940  1
  C  C16  1  -0.319400  0.582130  0.343540  1
  C  C17  1  -0.485400  0.761100  0.448980  1
  C  C18  1  0.644700  0.269400  0.721860  1
  C  C19  1  0.485400  0.238900  0.551020  1
  C  C20  1  0.001600  0.359710  0.314500  1
  C  C21  1  -0.479800  0.689760  0.355330  1
  C  C22  1  -0.655300  0.870980  0.459670  1
  C  C23  1  0.801600  0.164500  0.708100  1
  C  C24  1  0.655300  0.129020  0.540330  1
  C  C25  1  -0.017000  0.305300  0.235550  1
  C  C26  1  -0.644700  0.730600  0.278140  1
  C  C27  1  -0.805700  0.907080  0.383710  1
  C  C28  1  0.805700  0.092920  0.616290  1
  C  C29  1  -0.801600  0.835500  0.291900  1
  C  C30  1  -0.300900  0.094600  0.195220  1
  C  C31  1  -0.259900  0.372600  0.029100  1
  C  C32  1  0.168300  0.175700  0.021500  1
  H  H33  1  0.449900  0.868700  0.763900  1
  H  H34  1  0.330900  0.951000  0.865000  1
  H  H35  1  0.229200  0.970600  0.745100  1
  H  H36  1  0.152800  0.554100  1.015000  1
  H  H37  1  0.320700  0.663600  1.028600  1
  H  H38  1  0.391400  0.591800  0.916500  1
  H  H39  1  -0.249500  0.897300  0.929300  1
  H  H40  1  -0.122700  0.858400  1.041900  1
  H  H41  1  -0.273900  0.748600  1.015900  1
  H  H42  1  0.317500  0.464700  0.718300  1
  H  H43  1  -0.331300  0.768600  0.586500  1
  H  H44  1  0.331300  0.231400  0.413500  1
  H  H45  1  -0.317500  0.535300  0.281700  1
  H  H46  1  0.644300  0.316300  0.783500  1
  H  H47  1  -0.662200  0.919200  0.521100  1
  H  H48  1  0.909700  0.138600  0.760200  1
  H  H49  1  0.662200  0.080800  0.478900  1
  H  H50  1  -0.644300  0.683700  0.216500  1
  H  H51  1  -0.915300  0.981000  0.391700  1
  H  H52  1  0.915300  0.019000  0.608300  1
  H  H53  1  -0.909700  0.861400  0.239800  1
  H  H54  1  -0.449900  0.131300  0.236100  1
  H  H55  1  -0.330900  0.049000  0.135000  1
  H  H56  1  -0.229200  0.029400  0.254900  1
  H  H57  1  -0.152800  0.445900  -0.015000  1
  H  H58  1  -0.320700  0.336400  -0.028600  1
  H  H59  1  -0.391400  0.408200  0.083500  1
  H  H60  1  0.249500  0.102700  0.070700  1
  H  H61  1  0.122700  0.141600  -0.041900  1
  H  H62  1  0.273900  0.251400  -0.015900  1
  Si  Si63  1  0.098450  0.764910  0.881040  1.0
  Si  Si64  1  -0.098450  0.235090  0.118960  1
