# generated using pymatgen
data_SiH21C19S
_symmetry_space_group_name_H-M   'P 1'
_cell_length_a   7.25040000
_cell_length_b   10.55610000
_cell_length_c   11.22900000
_cell_angle_alpha   94.58500000
_cell_angle_beta   90.29600000
_cell_angle_gamma   102.41900000
_symmetry_Int_Tables_number   1
_chemical_formula_structural   SiH21C19S
_chemical_formula_sum   'Si2 H42 C38 S2'
_cell_volume   836.40593721
_cell_formula_units_Z   2
loop_
 _symmetry_equiv_pos_site_id
 _symmetry_equiv_pos_as_xyz
  1  'x, y, z'
loop_
 _atom_site_type_symbol
 _atom_site_label
 _atom_site_symmetry_multiplicity
 _atom_site_fract_x
 _atom_site_fract_y
 _atom_site_fract_z
 _atom_site_occupancy
  C  C1  1  0.335800  0.308300  0.790500  1
  C  C2  1  0.028200  0.291400  0.966500  1
  C  C3  1  0.394200  0.208200  1.029400  1
  C  C4  1  0.125600  0.045600  0.839100  1
  C  C5  1  0.390600  0.366300  0.705900  1
  C  C6  1  -0.120600  0.295000  0.871700  1
  C  C7  1  0.486900  0.338900  1.091700  1
  C  C8  1  0.276700  -0.018400  0.787700  1
  C  C9  1  0.447900  0.434700  0.603000  1
  C  C10  1  0.600200  0.407700  0.536500  1
  C  C11  1  0.346300  0.525700  0.568700  1
  C  C12  1  0.702900  0.316900  0.570800  1
  C  C13  1  0.653700  0.474300  0.431300  1
  C  C14  1  0.399800  0.592300  0.463500  1
  C  C15  1  0.193100  0.552400  0.634700  1
  C  C16  1  0.851100  0.292800  0.505400  1
  C  C17  1  0.552100  0.565300  0.397000  1
  C  C18  1  0.806900  0.447600  0.365300  1
  C  C19  1  0.297100  0.683100  0.429200  1
  C  C20  1  0.096000  0.640600  0.599400  1
  C  C21  1  0.904000  0.359400  0.400600  1
  C  C22  1  0.609400  0.633700  0.294100  1
  C  C23  1  0.148900  0.707200  0.494600  1
  C  C24  1  -0.065000  0.676000  0.657000  1
  C  C25  1  1.065000  0.324000  0.343000  1
  C  C26  1  1.133600  0.233500  0.402300  1
  C  C27  1  0.664200  0.691700  0.209500  1
  C  C28  1  -0.133600  0.766500  0.597700  1
  C  C29  1  1.292400  0.174700  0.372800  1
  C  C30  1  -0.292400  0.825300  0.627200  1
  C  C31  1  1.348600  0.087400  0.432700  1
  C  C32  1  0.971800  0.708600  0.033500  1
  C  C33  1  0.605800  0.791800  -0.029400  1
  C  C34  1  0.874400  0.954400  0.160900  1
  C  C35  1  -0.348600  0.912600  0.567300  1
  C  C36  1  1.120600  0.705000  0.128300  1
  C  C37  1  0.513100  0.661100  -0.091700  1
  C  C38  1  0.723300  1.018400  0.212300  1
  H  H39  1  -0.033600  0.243600  1.033000  1
  H  H40  1  0.084400  0.381600  0.998800  1
  H  H41  1  0.330000  0.152100  1.090100  1
  H  H42  1  0.494200  0.166900  0.994700  1
  H  H43  1  0.057300  -0.008600  0.899800  1
  H  H44  1  0.033800  0.049700  0.774800  1
  H  H45  1  -0.059900  0.339600  0.804200  1
  H  H46  1  -0.213400  0.341900  0.905800  1
  H  H47  1  -0.184300  0.205900  0.843900  1
  H  H48  1  0.553100  0.395200  1.033000  1
  H  H49  1  0.577400  0.326900  1.152600  1
  H  H50  1  0.390100  0.379500  1.129700  1
  H  H51  1  0.348500  0.036500  0.730000  1
  H  H52  1  0.218300  -0.103500  0.747400  1
  H  H53  1  0.361800  -0.029900  0.852100  1
  H  H54  1  0.668500  0.272200  0.640200  1
  H  H55  1  0.156900  0.508700  0.704400  1
  H  H56  1  0.843100  0.491300  0.295600  1
  H  H57  1  0.331500  0.727800  0.359800  1
  H  H58  1  -0.118300  0.641600  0.727800  1
  H  H59  1  1.118300  0.358400  0.272200  1
  H  H60  1  1.361800  0.201500  0.304300  1
  H  H61  1  -0.361800  0.798500  0.695700  1
  H  H62  1  1.283200  0.057900  0.501700  1
  H  H63  1  1.454600  0.053900  0.406900  1
  H  H64  1  1.033600  0.756400  -0.033000  1
  H  H65  1  0.915600  0.618400  0.001200  1
  H  H66  1  0.670000  0.847900  -0.090100  1
  H  H67  1  0.505800  0.833100  0.005300  1
  H  H68  1  0.942700  1.008600  0.100200  1
  H  H69  1  0.966200  0.950300  0.225200  1
  H  H70  1  -0.283200  0.942100  0.498300  1
  H  H71  1  -0.454600  0.946100  0.593100  1
  H  H72  1  1.059900  0.660400  0.195800  1
  H  H73  1  1.213400  0.658100  0.094200  1
  H  H74  1  1.184300  0.794100  0.156100  1
  H  H75  1  0.446900  0.604800  -0.033000  1
  H  H76  1  0.422600  0.673100  -0.152600  1
  H  H77  1  0.609900  0.620500  -0.129700  1
  H  H78  1  0.651500  0.963500  0.270000  1
  H  H79  1  0.781700  1.103500  0.252600  1
  H  H80  1  0.638200  1.029900  0.147900  1
  S  S81  1  0.997900  0.186400  0.525100  1
  S  S82  1  0.002100  0.813600  0.474900  1
  Si  Si83  1  0.220000  0.212760  0.909440  1.0
  Si  Si84  1  0.780000  0.787240  0.090560  1
