# generated using pymatgen
data_SiH30C23SF
_symmetry_space_group_name_H-M   'P 1'
_cell_length_a   15.85570000
_cell_length_b   17.50770000
_cell_length_c   17.54210000
_cell_angle_alpha   84.94100000
_cell_angle_beta   72.85100000
_cell_angle_gamma   71.32600000
_symmetry_Int_Tables_number   1
_chemical_formula_structural   SiH30C23SF
_chemical_formula_sum   'Si8 H240 C184 S8 F8'
_cell_volume   4408.06813697
_cell_formula_units_Z   8
loop_
 _symmetry_equiv_pos_site_id
 _symmetry_equiv_pos_as_xyz
  1  'x, y, z'
loop_
 _atom_site_type_symbol
 _atom_site_label
 _atom_site_symmetry_multiplicity
 _atom_site_fract_x
 _atom_site_fract_y
 _atom_site_fract_z
 _atom_site_occupancy
  C  C1  1  0.163100  0.223000  0.884700  1
  C  C2  1  0.024000  0.369400  0.840000  1
  C  C3  1  0.157800  0.246600  0.712500  1
  C  C4  1  0.235800  0.349300  0.789200  1
  C  C5  1  0.175600  0.176600  0.939300  1
  C  C6  1  -0.054800  0.347000  0.826600  1
  C  C7  1  0.253300  0.193800  0.664100  1
  C  C8  1  0.261100  0.372100  0.859400  1
  C  C9  1  0.191500  0.121400  1.003200  1
  C  C10  1  -0.145300  0.413700  0.849900  1
  C  C11  1  -0.064700  0.268800  0.871600  1
  C  C12  1  0.255500  0.174200  0.582200  1
  C  C13  1  0.288300  0.115800  0.706900  1
  C  C14  1  0.337400  0.412800  0.828600  1
  C  C15  1  0.179600  0.423500  0.918600  1
  C  C16  1  0.275700  0.105200  1.023300  1
  C  C17  1  0.123800  0.084800  1.044000  1
  C  C18  1  0.343100  0.143100  0.985500  1
  C  C19  1  0.292600  0.047000  1.084500  1
  C  C20  1  0.142200  0.025700  1.103100  1
  C  C21  1  0.035000  0.108800  1.028500  1
  C  C22  1  0.423100  0.127000  1.006400  1
  C  C23  1  0.375700  0.032800  1.107500  1
  C  C24  1  0.228400  0.005100  1.121000  1
  C  C25  1  0.075000  -0.012900  1.140600  1
  C  C26  1  -0.030400  0.071700  1.069000  1
  C  C27  1  0.438600  0.071600  1.071100  1
  C  C28  1  0.249900  -0.057900  1.175300  1
  C  C29  1  -0.009400  0.010100  1.125400  1
  C  C30  1  -0.124900  0.084600  1.069100  1
  C  C31  1  0.528500  0.067700  1.080100  1
  C  C32  1  0.567600  0.114400  1.030900  1
  C  C33  1  0.270400  -0.114500  1.219600  1
  C  C34  1  -0.164100  0.036000  1.116000  1
  C  C35  1  0.177500  -0.217600  1.332900  1
  C  C36  1  0.336300  -0.165800  1.366500  1
  C  C37  1  0.380400  -0.291600  1.238100  1
  C  C38  1  0.090200  -0.146400  1.361300  1
  C  C39  1  0.438100  -0.170200  1.345100  1
  C  C40  1  0.352700  -0.340900  1.189000  1
  C  C41  1  0.005900  -0.175600  1.379400  1
  C  C42  1  0.087800  -0.104000  1.432800  1
  C  C43  1  0.470500  -0.129000  1.270000  1
  C  C44  1  0.459200  -0.141800  1.414000  1
  C  C45  1  0.328800  -0.296200  1.115700  1
  C  C46  1  0.429500  -0.419900  1.159400  1
  C  C47  1  0.836900  -0.223000  1.115300  1
  C  C48  1  0.976000  -0.369400  1.160000  1
  C  C49  1  0.842200  -0.246600  1.287500  1
  C  C50  1  0.764200  -0.349300  1.210800  1
  C  C51  1  0.824400  -0.176600  1.060700  1
  C  C52  1  1.054800  -0.347000  1.173400  1
  C  C53  1  0.746700  -0.193800  1.335900  1
  C  C54  1  0.738900  -0.372100  1.140600  1
  C  C55  1  0.808500  -0.121400  0.996800  1
  C  C56  1  1.145300  -0.413700  1.150100  1
  C  C57  1  1.064700  -0.268800  1.128400  1
  C  C58  1  0.744500  -0.174200  1.417800  1
  C  C59  1  0.711700  -0.115800  1.293100  1
  C  C60  1  0.662600  -0.412800  1.171400  1
  C  C61  1  0.820400  -0.423500  1.081400  1
  C  C62  1  0.724300  -0.105200  0.976700  1
  C  C63  1  0.876200  -0.084800  0.956000  1
  C  C64  1  0.656900  -0.143100  1.014500  1
  C  C65  1  0.707400  -0.047000  0.915500  1
  C  C66  1  0.857800  -0.025700  0.896900  1
  C  C67  1  0.965000  -0.108800  0.971500  1
  C  C68  1  0.576900  -0.127000  0.993600  1
  C  C69  1  0.624300  -0.032800  0.892500  1
  C  C70  1  0.771600  -0.005100  0.879000  1
  C  C71  1  0.925000  0.012900  0.859400  1
  C  C72  1  1.030400  -0.071700  0.931000  1
  C  C73  1  0.561400  -0.071600  0.928900  1
  C  C74  1  0.750100  0.057900  0.824700  1
  C  C75  1  1.009400  -0.010100  0.874600  1
  C  C76  1  1.124900  -0.084600  0.930900  1
  C  C77  1  0.471500  -0.067700  0.919900  1
  C  C78  1  0.432400  -0.114400  0.969100  1
  C  C79  1  0.729600  0.114500  0.780400  1
  C  C80  1  1.164100  -0.036000  0.884000  1
  C  C81  1  0.822500  0.217600  0.667100  1
  C  C82  1  0.663700  0.165800  0.633500  1
  C  C83  1  0.619600  0.291600  0.761900  1
  C  C84  1  0.909800  0.146400  0.638700  1
  C  C85  1  0.561900  0.170200  0.654900  1
  C  C86  1  0.647300  0.340900  0.811000  1
  C  C87  1  0.994100  0.175600  0.620600  1
  C  C88  1  0.912200  0.104000  0.567200  1
  C  C89  1  0.529500  0.129000  0.730000  1
  C  C90  1  0.540800  0.141800  0.586000  1
  C  C91  1  0.671200  0.296200  0.884300  1
  C  C92  1  0.570500  0.419900  0.840600  1
  C  C93  1  -0.410000  0.613700  1.722500  1
  C  C94  1  -0.569400  0.670700  1.871500  1
  C  C95  1  -0.525300  0.793300  1.746500  1
  C  C96  1  -0.381400  0.711000  1.835300  1
  C  C97  1  -0.364100  0.557800  1.677000  1
  C  C98  1  -0.657500  0.681800  1.847900  1
  C  C99  1  -0.462700  0.840900  1.695000  1
  C  C100  1  -0.316700  0.636700  1.864900  1
  C  C101  1  -0.307100  0.493900  1.622700  1
  C  C102  1  -0.731600  0.664400  1.918100  1
  C  C103  1  -0.641000  0.631900  1.776600  1
  C  C104  1  -0.519600  0.920800  1.675400  1
  C  C105  1  -0.396700  0.793400  1.622500  1
  C  C106  1  -0.231700  0.654000  1.871200  1
  C  C107  1  -0.366400  0.607500  1.944900  1
  C  C108  1  -0.209300  0.472600  1.604600  1
  C  C109  1  -0.348500  0.452400  1.585800  1
  C  C110  1  -0.165900  0.511000  1.643000  1
  C  C111  1  -0.151400  0.411800  1.545800  1
  C  C112  1  -0.290300  0.392900  1.526300  1
  C  C113  1  -0.445900  0.468400  1.608600  1
  C  C114  1  -0.072500  0.490200  1.626600  1
  C  C115  1  -0.053000  0.390300  1.529200  1
  C  C116  1  -0.193700  0.375000  1.505400  1
  C  C117  1  -0.333333  0.354200  1.487400  1
  C  C118  1  -0.484000  0.423000  1.573000  1
  C  C119  1  -0.014400  0.426900  1.568600  1
  C  C120  1  -0.136900  0.317700  1.443600  1
  C  C121  1  -0.420800  0.371000  1.506000  1
  C  C122  1  -0.578000  0.431100  1.583400  1
  C  C123  1  0.081800  0.417200  1.563900  1
  C  C124  1  0.090100  0.465000  1.611600  1
  C  C125  1  -0.090200  0.269100  1.390100  1
  C  C126  1  -0.587800  0.387100  1.530000  1
  C  C127  1  -0.085000  0.104600  1.342900  1
  C  C128  1  0.077800  0.124100  1.330600  1
  C  C129  1  -0.046500  0.234100  1.214600  1
  C  C130  1  -0.188100  0.126000  1.383600  1
  C  C131  1  0.162300  0.151000  1.316800  1
  C  C132  1  -0.019400  0.313200  1.191400  1
  C  C133  1  -0.247800  0.176000  1.330500  1
  C  C134  1  -0.217100  0.051200  1.411500  1
  C  C135  1  0.244500  0.086000  1.332000  1
  C  C136  1  0.137000  0.228900  1.368000  1
  C  C137  1  -0.102000  0.384500  1.225600  1
  C  C138  1  0.015000  0.325000  1.103000  1
  C  C139  1  0.410000  -0.613700  1.277500  1
  C  C140  1  0.569400  -0.670700  1.128500  1
  C  C141  1  0.525300  -0.793300  1.253500  1
  C  C142  1  0.381400  -0.711000  1.164700  1
  C  C143  1  0.364100  -0.557800  1.323000  1
  C  C144  1  0.657500  -0.681800  1.152100  1
  C  C145  1  0.462700  -0.840900  1.305000  1
  C  C146  1  0.316700  -0.636700  1.135100  1
  C  C147  1  0.307100  -0.493900  1.377300  1
  C  C148  1  0.731600  -0.664400  1.081900  1
  C  C149  1  0.641000  -0.631900  1.223400  1
  C  C150  1  0.519600  -0.920800  1.324600  1
  C  C151  1  0.396700  -0.793400  1.377500  1
  C  C152  1  0.231700  -0.654000  1.128800  1
  C  C153  1  0.366400  -0.607500  1.055100  1
  C  C154  1  0.209300  -0.472600  1.395400  1
  C  C155  1  0.348500  -0.452400  1.414200  1
  C  C156  1  0.165900  -0.511000  1.357000  1
  C  C157  1  0.151400  -0.411800  1.454200  1
  C  C158  1  0.290300  -0.392900  1.473700  1
  C  C159  1  0.445900  -0.468400  1.391400  1
  C  C160  1  0.072500  -0.490200  1.373400  1
  C  C161  1  0.053000  -0.390300  1.470800  1
  C  C162  1  0.193700  -0.375000  1.494600  1
  C  C163  1  0.333333  -0.354200  1.512600  1
  C  C164  1  0.484000  -0.423000  1.427000  1
  C  C165  1  0.014400  -0.426900  1.431400  1
  C  C166  1  0.136900  -0.317700  1.556400  1
  C  C167  1  0.420800  -0.371000  1.494000  1
  C  C168  1  0.578000  -0.431100  1.416600  1
  C  C169  1  -0.081800  -0.417200  1.436100  1
  C  C170  1  -0.090100  -0.465000  1.388400  1
  C  C171  1  0.090200  -0.269100  1.609900  1
  C  C172  1  0.587800  -0.387100  1.470000  1
  C  C173  1  0.085000  -0.104600  1.657100  1
  C  C174  1  -0.077800  -0.124100  1.669400  1
  C  C175  1  0.046500  -0.234100  1.785400  1
  C  C176  1  0.188100  -0.126000  1.616400  1
  C  C177  1  -0.162300  -0.151000  1.683200  1
  C  C178  1  0.019400  -0.313200  1.808600  1
  C  C179  1  0.247800  -0.176000  1.669500  1
  C  C180  1  0.217100  -0.051200  1.588500  1
  C  C181  1  -0.244500  -0.086000  1.668000  1
  C  C182  1  -0.137000  -0.228900  1.632000  1
  C  C183  1  0.102000  -0.384500  1.774400  1
  C  C184  1  -0.015000  -0.325000  1.897000  1
  F  F185  1  0.650100  0.123800  1.026900  1
  F  F186  1  -0.250000  0.032100  1.124600  1
  F  F187  1  0.349900  -0.123800  0.973100  1
  F  F188  1  1.250000  -0.032100  0.875400  1
  F  F189  1  0.170000  0.472000  1.619200  1
  F  F190  1  -0.667800  0.375800  1.528900  1
  F  F191  1  -0.170000  -0.472000  1.380800  1
  F  F192  1  0.667800  -0.375800  1.471100  1
  H  H193  1  0.009700  0.378600  0.898000  1
  H  H194  1  0.024400  0.421500  0.813300  1
  H  H195  1  0.116200  0.212700  0.726500  1
  H  H196  1  0.133600  0.289300  0.676500  1
  H  H197  1  0.293600  0.314500  0.753200  1
  H  H198  1  0.215500  0.399500  0.759700  1
  H  H199  1  -0.039600  0.336200  0.768200  1
  H  H200  1  0.297900  0.224900  0.657900  1
  H  H201  1  0.287100  0.321200  0.886700  1
  H  H202  1  -0.194900  0.395500  0.842900  1
  H  H203  1  -0.140600  0.460700  0.816100  1
  H  H204  1  -0.159400  0.428600  0.905800  1
  H  H205  1  -0.078500  0.277300  0.929000  1
  H  H206  1  -0.006500  0.224800  0.853300  1
  H  H207  1  -0.115200  0.254700  0.861000  1
  H  H208  1  0.223500  0.133900  0.585600  1
  H  H209  1  0.320100  0.152600  0.549900  1
  H  H210  1  0.224300  0.223100  0.557300  1
  H  H211  1  0.288800  0.128400  0.760100  1
  H  H212  1  0.351400  0.086000  0.676200  1
  H  H213  1  0.247400  0.082800  0.712000  1
  H  H214  1  0.330700  0.441700  0.779100  1
  H  H215  1  0.398400  0.371700  0.818100  1
  H  H216  1  0.331600  0.451100  0.868800  1
  H  H217  1  0.177400  0.480100  0.909800  1
  H  H218  1  0.184500  0.407800  0.972500  1
  H  H219  1  0.122800  0.416800  0.912600  1
  H  H220  1  0.332500  0.180900  0.944300  1
  H  H221  1  0.021200  0.149900  0.990900  1
  H  H222  1  0.387100  -0.004400  1.148900  1
  H  H223  1  0.088600  -0.055400  1.177000  1
  H  H224  1  -0.155700  0.124700  1.037800  1
  H  H225  1  0.555500  0.034500  1.117900  1
  H  H226  1  0.168000  -0.247100  1.292100  1
  H  H227  1  0.182700  -0.254400  1.378700  1
  H  H228  1  0.298700  -0.109400  1.381900  1
  H  H229  1  0.323700  -0.199200  1.414600  1
  H  H230  1  0.433500  -0.276000  1.202600  1
  H  H231  1  0.403600  -0.327500  1.279300  1
  H  H232  1  0.087200  -0.106700  1.316700  1
  H  H233  1  0.474800  -0.228600  1.336800  1
  H  H234  1  0.296700  -0.354300  1.223400  1
  H  H235  1  -0.001700  -0.202800  1.431100  1
  H  H236  1  0.014600  -0.213300  1.337600  1
  H  H237  1  -0.049500  -0.129400  1.381200  1
  H  H238  1  0.111200  -0.143900  1.470400  1
  H  H239  1  0.023800  -0.071800  1.458600  1
  H  H240  1  0.126700  -0.068500  1.416000  1
  H  H241  1  0.438600  -0.070900  1.276200  1
  H  H242  1  0.456800  -0.149800  1.226500  1
  H  H243  1  0.537600  -0.139100  1.257600  1
  H  H244  1  0.526500  -0.153900  1.402800  1
  H  H245  1  0.435700  -0.169600  1.462700  1
  H  H246  1  0.429200  -0.083600  1.421300  1
  H  H247  1  0.274800  -0.248200  1.132700  1
  H  H248  1  0.314400  -0.331800  1.084600  1
  H  H249  1  0.381800  -0.279900  1.082700  1
  H  H250  1  0.486600  -0.408200  1.129100  1
  H  H251  1  0.410400  -0.448400  1.125000  1
  H  H252  1  0.440700  -0.453800  1.205200  1
  H  H253  1  0.990300  -0.378600  1.102000  1
  H  H254  1  0.975600  -0.421500  1.186700  1
  H  H255  1  0.883800  -0.212700  1.273500  1
  H  H256  1  0.866400  -0.289300  1.323500  1
  H  H257  1  0.706400  -0.314500  1.246800  1
  H  H258  1  0.784500  -0.399500  1.240300  1
  H  H259  1  1.039600  -0.336200  1.231800  1
  H  H260  1  0.702100  -0.224900  1.342100  1
  H  H261  1  0.712900  -0.321200  1.113300  1
  H  H262  1  1.194900  -0.395500  1.157100  1
  H  H263  1  1.140600  -0.460700  1.183900  1
  H  H264  1  1.159400  -0.428600  1.094200  1
  H  H265  1  1.078500  -0.277300  1.071000  1
  H  H266  1  1.006500  -0.224800  1.146700  1
  H  H267  1  1.115200  -0.254700  1.139000  1
  H  H268  1  0.776500  -0.133900  1.414400  1
  H  H269  1  0.679900  -0.152600  1.450100  1
  H  H270  1  0.775700  -0.223100  1.442700  1
  H  H271  1  0.711200  -0.128400  1.239900  1
  H  H272  1  0.648600  -0.086000  1.323800  1
  H  H273  1  0.752600  -0.082800  1.288000  1
  H  H274  1  0.669300  -0.441700  1.220900  1
  H  H275  1  0.601600  -0.371700  1.181900  1
  H  H276  1  0.668400  -0.451100  1.131200  1
  H  H277  1  0.822600  -0.480100  1.090200  1
  H  H278  1  0.815500  -0.407800  1.027500  1
  H  H279  1  0.877200  -0.416800  1.087400  1
  H  H280  1  0.667500  -0.180900  1.055700  1
  H  H281  1  0.978800  -0.149900  1.009100  1
  H  H282  1  0.612900  0.004400  0.851100  1
  H  H283  1  0.911400  0.055400  0.823000  1
  H  H284  1  1.155700  -0.124700  0.962200  1
  H  H285  1  0.444500  -0.034500  0.882100  1
  H  H286  1  0.832000  0.247100  0.707900  1
  H  H287  1  0.817300  0.254400  0.621300  1
  H  H288  1  0.701300  0.109400  0.618100  1
  H  H289  1  0.676300  0.199200  0.585400  1
  H  H290  1  0.566500  0.276000  0.797400  1
  H  H291  1  0.596400  0.327500  0.720700  1
  H  H292  1  0.912800  0.106700  0.683300  1
  H  H293  1  0.525200  0.228600  0.663200  1
  H  H294  1  0.703300  0.354300  0.776600  1
  H  H295  1  1.001700  0.202800  0.568900  1
  H  H296  1  0.985400  0.213300  0.662400  1
  H  H297  1  1.049500  0.129400  0.618800  1
  H  H298  1  0.888800  0.143900  0.529600  1
  H  H299  1  0.976200  0.071800  0.541400  1
  H  H300  1  0.873300  0.068500  0.584000  1
  H  H301  1  0.561400  0.070900  0.723800  1
  H  H302  1  0.543200  0.149800  0.773500  1
  H  H303  1  0.462400  0.139100  0.742400  1
  H  H304  1  0.473500  0.153900  0.597200  1
  H  H305  1  0.564300  0.169600  0.537300  1
  H  H306  1  0.570800  0.083600  0.578700  1
  H  H307  1  0.725200  0.248200  0.867300  1
  H  H308  1  0.685600  0.331800  0.915400  1
  H  H309  1  0.618200  0.279900  0.917300  1
  H  H310  1  0.513400  0.408200  0.870900  1
  H  H311  1  0.589600  0.448400  0.875000  1
  H  H312  1  0.559300  0.453800  0.794800  1
  H  H313  1  -0.545600  0.613500  1.886000  1
  H  H314  1  -0.586200  0.703500  1.920000  1
  H  H315  1  -0.558800  0.780000  1.712600  1
  H  H316  1  -0.572500  0.830000  1.789200  1
  H  H317  1  -0.342100  0.736300  1.793100  1
  H  H318  1  -0.413000  0.750000  1.880200  1
  H  H319  1  -0.681200  0.739700  1.833500  1
  H  H320  1  -0.424800  0.850000  1.727800  1
  H  H321  1  -0.295900  0.592400  1.824900  1
  H  H322  1  -0.788900  0.674500  1.902900  1
  H  H323  1  -0.743400  0.699600  1.963100  1
  H  H324  1  -0.710400  0.607900  1.933700  1
  H  H325  1  -0.602600  0.651500  1.729400  1
  H  H326  1  -0.700700  0.636200  1.767800  1
  H  H327  1  -0.609100  0.575400  1.785900  1
  H  H328  1  -0.480400  0.955900  1.656300  1
  H  H329  1  -0.569300  0.944800  1.723200  1
  H  H330  1  -0.546800  0.914800  1.633800  1
  H  H331  1  -0.431700  0.778300  1.591900  1
  H  H332  1  -0.354800  0.744600  1.638900  1
  H  H333  1  -0.360300  0.826300  1.589100  1
  H  H334  1  -0.250200  0.696500  1.911100  1
  H  H335  1  -0.199800  0.671900  1.819300  1
  H  H336  1  -0.189800  0.605000  1.887200  1
  H  H337  1  -0.322900  0.560700  1.962400  1
  H  H338  1  -0.418500  0.592300  1.939000  1
  H  H339  1  -0.389700  0.650900  1.984700  1
  H  H340  1  -0.203500  0.552300  1.681300  1
  H  H341  1  -0.485100  0.509300  1.646900  1
  H  H342  1  -0.014200  0.350100  1.490200  1
  H  H343  1  -0.295700  0.315400  1.446700  1
  H  H344  1  -0.628200  0.464200  1.623000  1
  H  H345  1  0.133300  0.379500  1.529400  1
  H  H346  1  -0.071200  0.071600  1.295100  1
  H  H347  1  -0.052100  0.070000  1.379500  1
  H  H348  1  0.060000  0.108700  1.387400  1
  H  H349  1  0.096800  0.074500  1.298600  1
  H  H350  1  -0.008600  0.192900  1.172600  1
  H  H351  1  -0.112500  0.245300  1.216900  1
  H  H352  1  -0.201900  0.159300  1.431800  1
  H  H353  1  0.180500  0.166200  1.259300  1
  H  H354  1  0.031000  0.311500  1.215500  1
  H  H355  1  -0.313700  0.188000  1.359800  1
  H  H356  1  -0.233100  0.226500  1.315900  1
  H  H357  1  -0.234800  0.145200  1.282100  1
  H  H358  1  -0.284100  0.067100  1.437500  1
  H  H359  1  -0.202200  0.016400  1.365500  1
  H  H360  1  -0.183800  0.021900  1.449500  1
  H  H361  1  0.297000  0.107200  1.322000  1
  H  H362  1  0.228400  0.068500  1.387600  1
  H  H363  1  0.261600  0.040100  1.296300  1
  H  H364  1  0.083700  0.270100  1.356700  1
  H  H365  1  0.122200  0.215500  1.424600  1
  H  H366  1  0.190400  0.249700  1.353900  1
  H  H367  1  -0.124500  0.377800  1.283300  1
  H  H368  1  -0.083200  0.433700  1.215100  1
  H  H369  1  -0.150700  0.388800  1.200800  1
  H  H370  1  0.068300  0.278800  1.079700  1
  H  H371  1  -0.035100  0.329400  1.078600  1
  H  H372  1  0.032400  0.374400  1.093000  1
  H  H373  1  0.545600  -0.613500  1.114000  1
  H  H374  1  0.586200  -0.703500  1.080000  1
  H  H375  1  0.558800  -0.780000  1.287400  1
  H  H376  1  0.572500  -0.830000  1.210800  1
  H  H377  1  0.342100  -0.736300  1.206900  1
  H  H378  1  0.413000  -0.750000  1.119800  1
  H  H379  1  0.681200  -0.739700  1.166500  1
  H  H380  1  0.424800  -0.850000  1.272200  1
  H  H381  1  0.295900  -0.592400  1.175100  1
  H  H382  1  0.788900  -0.674500  1.097100  1
  H  H383  1  0.743400  -0.699600  1.036900  1
  H  H384  1  0.710400  -0.607900  1.066300  1
  H  H385  1  0.602600  -0.651500  1.270600  1
  H  H386  1  0.700700  -0.636200  1.232200  1
  H  H387  1  0.609100  -0.575400  1.214100  1
  H  H388  1  0.480400  -0.955900  1.343700  1
  H  H389  1  0.569300  -0.944800  1.276800  1
  H  H390  1  0.546800  -0.914800  1.366200  1
  H  H391  1  0.431700  -0.778300  1.408100  1
  H  H392  1  0.354800  -0.744600  1.361100  1
  H  H393  1  0.360300  -0.826300  1.410900  1
  H  H394  1  0.250200  -0.696500  1.088900  1
  H  H395  1  0.199800  -0.671900  1.180700  1
  H  H396  1  0.189800  -0.605000  1.112800  1
  H  H397  1  0.322900  -0.560700  1.037600  1
  H  H398  1  0.418500  -0.592300  1.061000  1
  H  H399  1  0.389700  -0.650900  1.015300  1
  H  H400  1  0.203500  -0.552300  1.318700  1
  H  H401  1  0.485100  -0.509300  1.353100  1
  H  H402  1  0.014200  -0.350100  1.509800  1
  H  H403  1  0.295700  -0.315400  1.553300  1
  H  H404  1  0.628200  -0.464200  1.377000  1
  H  H405  1  -0.133300  -0.379500  1.470600  1
  H  H406  1  0.071200  -0.071600  1.704900  1
  H  H407  1  0.052100  -0.070000  1.620500  1
  H  H408  1  -0.060000  -0.108700  1.612600  1
  H  H409  1  -0.096800  -0.074500  1.701400  1
  H  H410  1  0.008600  -0.192900  1.827400  1
  H  H411  1  0.112500  -0.245300  1.783100  1
  H  H412  1  0.201900  -0.159300  1.568200  1
  H  H413  1  -0.180500  -0.166200  1.740700  1
  H  H414  1  -0.031000  -0.311500  1.784500  1
  H  H415  1  0.313700  -0.188000  1.640200  1
  H  H416  1  0.233100  -0.226500  1.684100  1
  H  H417  1  0.234800  -0.145200  1.717900  1
  H  H418  1  0.284100  -0.067100  1.562500  1
  H  H419  1  0.202200  -0.016400  1.634500  1
  H  H420  1  0.183800  -0.021900  1.550500  1
  H  H421  1  -0.297000  -0.107200  1.678000  1
  H  H422  1  -0.228400  -0.068500  1.612400  1
  H  H423  1  -0.261600  -0.040100  1.703700  1
  H  H424  1  -0.083700  -0.270100  1.643300  1
  H  H425  1  -0.122200  -0.215500  1.575400  1
  H  H426  1  -0.190400  -0.249700  1.646100  1
  H  H427  1  0.124500  -0.377800  1.716700  1
  H  H428  1  0.083200  -0.433700  1.784900  1
  H  H429  1  0.150700  -0.388800  1.799200  1
  H  H430  1  -0.068300  -0.278800  1.920300  1
  H  H431  1  0.035100  -0.329400  1.921400  1
  H  H432  1  -0.032400  -0.374400  1.907000  1
  S  S433  1  0.510200  0.168900  0.962400  1
  S  S434  1  -0.096800  -0.033200  1.170700  1
  S  S435  1  0.489800  -0.168900  1.037600  1
  S  S436  1  1.096800  0.033200  0.829300  1
  S  S437  1  -0.012300  0.533700  1.669400  1
  S  S438  1  -0.486300  0.329700  1.465100  1
  S  S439  1  0.012300  -0.533700  1.330600  1
  S  S440  1  0.486300  -0.329700  1.534900  1
  Si  Si441  1  0.145580  0.297160  0.805830  1.0
  Si  Si442  1  0.292360  -0.198030  1.289760  1
  Si  Si443  1  0.854420  -0.297160  1.194170  1.0
  Si  Si444  1  0.707640  0.198030  0.710240  1
  Si  Si445  1  -0.472310  0.697850  1.795120  1.0
  Si  Si446  1  -0.029960  0.194750  1.308250  1
  Si  Si447  1  0.472310  -0.697850  1.204880  1.0
  Si  Si448  1  0.029960  -0.194750  1.691750  1
