# generated using pymatgen
data_SiH29C25F4
_symmetry_space_group_name_H-M   'P 1'
_cell_length_a   7.49440000
_cell_length_b   8.30590000
_cell_length_c   18.62550000
_cell_angle_alpha   90.93300000
_cell_angle_beta   97.23600000
_cell_angle_gamma   101.83400000
_symmetry_Int_Tables_number   1
_chemical_formula_structural   SiH29C25F4
_chemical_formula_sum   'Si2 H58 C50 F8'
_cell_volume   1124.65642834
_cell_formula_units_Z   2
loop_
 _symmetry_equiv_pos_site_id
 _symmetry_equiv_pos_as_xyz
  1  'x, y, z'
loop_
 _atom_site_type_symbol
 _atom_site_label
 _atom_site_symmetry_multiplicity
 _atom_site_fract_x
 _atom_site_fract_y
 _atom_site_fract_z
 _atom_site_occupancy
  C  C1  1  0.661700  0.329400  0.694630  1
  C  C2  1  0.689500  0.036400  0.786960  1
  C  C3  1  0.503000  0.307800  0.834200  1
  C  C4  1  0.922000  0.381300  0.835040  1
  C  C5  1  0.622800  0.377500  0.635450  1
  C  C6  1  0.523200  -0.068500  0.739610  1
  C  C7  1  0.516000  0.265400  0.913940  1
  C  C8  1  0.941700  0.567900  0.837320  1
  C  C9  1  0.564700  0.438200  0.566690  1
  C  C10  1  0.501600  -0.251600  0.752090  1
  C  C11  1  0.348300  0.284400  0.948930  1
  C  C12  1  1.114800  0.658100  0.884820  1
  C  C13  1  0.631500  0.604100  0.551570  1
  C  C14  1  0.436500  0.331700  0.515720  1
  C  C15  1  0.335700  -0.357200  0.705660  1
  C  C16  1  0.357300  0.232800  1.026670  1
  C  C17  1  1.142800  0.844100  0.884360  1
  C  C18  1  0.762600  0.709700  0.601070  1
  C  C19  1  0.563500  0.668300  0.484280  1
  C  C20  1  0.368500  0.395900  0.448430  1
  C  C21  1  0.374300  0.164600  0.528570  1
  C  C22  1  0.822300  0.873100  0.587720  1
  C  C23  1  0.435300  0.561800  0.433310  1
  C  C24  1  0.625700  0.835400  0.471430  1
  C  C25  1  0.237400  0.290300  0.398930  1
  C  C26  1  0.250400  0.060700  0.478300  1
  C  C27  1  0.954000  0.983000  0.637020  1
  C  C28  1  0.749600  0.939300  0.521700  1
  C  C29  1  0.377200  0.622500  0.364550  1
  C  C30  1  0.177700  0.126900  0.412280  1
  C  C31  1  0.187400  -0.109300  0.489450  1
  C  C32  1  1.007300  1.143200  0.624790  1
  C  C33  1  0.812600  1.109300  0.510550  1
  C  C34  1  0.338300  0.670600  0.305370  1
  C  C35  1  0.046000  0.017000  0.362980  1
  C  C36  1  0.065900  -0.209100  0.440010  1
  C  C37  1  0.934100  1.209100  0.559990  1
  C  C38  1  -0.007300  -0.143200  0.375210  1
  C  C39  1  0.310500  0.963600  0.213040  1
  C  C40  1  0.497000  0.692200  0.165800  1
  C  C41  1  0.078000  0.618700  0.164960  1
  C  C42  1  0.476800  1.068500  0.260390  1
  C  C43  1  0.484000  0.734600  0.086060  1
  C  C44  1  0.058300  0.432100  0.162680  1
  C  C45  1  0.498400  1.251600  0.247910  1
  C  C46  1  0.651700  0.715600  0.051070  1
  C  C47  1  -0.114800  0.341900  0.115180  1
  C  C48  1  0.664300  1.357200  0.294340  1
  C  C49  1  0.642700  0.767200  -0.026670  1
  C  C50  1  -0.142800  0.155900  0.115640  1
  F  F51  1  1.026430  0.922250  0.698010  1
  F  F52  1  0.251870  -0.171420  0.551210  1
  F  F53  1  1.129970  1.245330  0.671690  1
  F  F54  1  0.748130  1.171420  0.448790  1
  F  F55  1  -0.026430  0.077750  0.301990  1
  F  F56  1  0.005540  -0.368750  0.450420  1
  F  F57  1  0.994460  1.368750  0.549580  1
  F  F58  1  -0.129970  -0.245330  0.328310  1
  H  H59  1  0.802900  0.016400  0.769500  1
  H  H60  1  0.690000  -0.000800  0.837200  1
  H  H61  1  0.501200  0.426200  0.830600  1
  H  H62  1  0.385500  0.244400  0.808300  1
  H  H63  1  0.939000  0.345100  0.885400  1
  H  H64  1  1.021800  0.353500  0.810200  1
  H  H65  1  0.410500  -0.032900  0.749900  1
  H  H66  1  0.536300  -0.049500  0.688000  1
  H  H67  1  0.531700  0.150300  0.918000  1
  H  H68  1  0.626500  0.337600  0.940900  1
  H  H69  1  0.943900  0.606900  0.787400  1
  H  H70  1  0.832900  0.595500  0.855800  1
  H  H71  1  0.489600  -0.270300  0.803800  1
  H  H72  1  0.614100  -0.287200  0.741500  1
  H  H73  1  0.336800  0.400900  0.947500  1
  H  H74  1  0.236900  0.217100  0.920400  1
  H  H75  1  1.108800  0.623600  0.935200  1
  H  H76  1  1.222800  0.624700  0.868200  1
  H  H77  1  0.224000  -0.320500  0.714600  1
  H  H78  1  0.325200  -0.472700  0.718100  1
  H  H79  1  0.351200  -0.346400  0.654400  1
  H  H80  1  0.367300  0.117100  1.028500  1
  H  H81  1  0.245400  0.246400  1.046100  1
  H  H82  1  0.464900  0.301600  1.055700  1
  H  H83  1  1.157400  0.880300  0.835200  1
  H  H84  1  1.253500  0.893800  0.917500  1
  H  H85  1  1.035800  0.878400  0.900100  1
  H  H86  1  0.811000  0.667300  0.644700  1
  H  H87  1  0.418500  0.122100  0.572800  1
  H  H88  1  0.581500  0.877900  0.427200  1
  H  H89  1  0.189000  0.332700  0.355300  1
  H  H90  1  0.197100  0.983600  0.230500  1
  H  H91  1  0.310000  1.000800  0.162800  1
  H  H92  1  0.498800  0.573800  0.169400  1
  H  H93  1  0.614500  0.755600  0.191700  1
  H  H94  1  0.061000  0.654900  0.114600  1
  H  H95  1  -0.021800  0.646500  0.189800  1
  H  H96  1  0.589500  1.032900  0.250100  1
  H  H97  1  0.463700  1.049500  0.312000  1
  H  H98  1  0.468300  0.849700  0.082000  1
  H  H99  1  0.373500  0.662400  0.059100  1
  H  H100  1  0.056100  0.393100  0.212600  1
  H  H101  1  0.167100  0.404500  0.144200  1
  H  H102  1  0.510400  1.270300  0.196200  1
  H  H103  1  0.385900  1.287200  0.258500  1
  H  H104  1  0.663200  0.599100  0.052500  1
  H  H105  1  0.763100  0.782900  0.079600  1
  H  H106  1  -0.108800  0.376400  0.064800  1
  H  H107  1  -0.222800  0.375300  0.131800  1
  H  H108  1  0.776000  1.320500  0.285400  1
  H  H109  1  0.674800  1.472700  0.281900  1
  H  H110  1  0.648800  1.346400  0.345600  1
  H  H111  1  0.632700  0.882900  -0.028500  1
  H  H112  1  0.754600  0.753600  -0.046100  1
  H  H113  1  0.535100  0.698400  -0.055700  1
  H  H114  1  -0.157400  0.119700  0.164800  1
  H  H115  1  -0.253500  0.106200  0.082500  1
  H  H116  1  -0.035800  0.121600  0.099900  1
  Si  Si117  1  0.697050  0.262750  0.788390  1.0
  Si  Si118  1  0.302950  0.737250  0.211610  1
