# generated using pymatgen
data_SiH36C31S3
_symmetry_space_group_name_H-M   'P 1'
_cell_length_a   8.12440000
_cell_length_b   11.82740000
_cell_length_c   16.62850000
_cell_angle_alpha   70.29400000
_cell_angle_beta   75.90600000
_cell_angle_gamma   82.31700000
_symmetry_Int_Tables_number   1
_chemical_formula_structural   SiH36C31S3
_chemical_formula_sum   'Si2 H72 C62 S6'
_cell_volume   1456.65231151
_cell_formula_units_Z   2
loop_
 _symmetry_equiv_pos_site_id
 _symmetry_equiv_pos_as_xyz
  1  'x, y, z'
loop_
 _atom_site_type_symbol
 _atom_site_label
 _atom_site_symmetry_multiplicity
 _atom_site_fract_x
 _atom_site_fract_y
 _atom_site_fract_z
 _atom_site_occupancy
  C  C1  1  0.458600  0.623100  0.704860  1
  C  C2  1  0.659000  0.636900  0.834500  1
  C  C3  1  0.395700  0.839500  0.766760  1
  C  C4  1  0.283000  0.579600  0.886900  1
  C  C5  1  0.465300  0.585800  0.645380  1
  C  C6  1  0.799900  0.703100  0.762500  1
  C  C7  1  0.705700  0.502400  0.859800  1
  C  C8  1  0.238600  0.878000  0.726700  1
  C  C9  1  0.378900  0.887800  0.843600  1
  C  C10  1  0.326100  0.444900  0.902300  1
  C  C11  1  0.479900  0.542000  0.573390  1
  C  C12  1  0.192900  0.363500  0.964600  1
  C  C13  1  0.360200  0.565700  0.526700  1
  C  C14  1  0.631700  0.471000  0.546700  1
  C  C15  1  0.259700  0.229500  0.978100  1
  C  C16  1  0.368300  0.529000  0.453300  1
  C  C17  1  0.639800  0.434300  0.473300  1
  C  C18  1  0.779000  0.430800  0.582000  1
  C  C19  1  0.137500  0.139700  1.046400  1
  C  C20  1  0.520100  0.458000  0.426610  1
  C  C21  1  0.221000  0.569200  0.418000  1
  C  C22  1  0.106700  0.637200  0.460700  1
  C  C23  1  0.893300  0.362800  0.539300  1
  C  C24  1  0.203700  0.008800  1.062000  1
  C  C25  1  0.534700  0.414200  0.354620  1
  C  C26  1  -0.057100  0.692000  0.440200  1
  C  C27  1  1.057100  0.308000  0.559800  1
  C  C28  1  0.081500  -0.084300  1.117500  1
  C  C29  1  0.541400  0.376900  0.295140  1
  C  C30  1  -0.176800  0.751500  0.485000  1
  C  C31  1  1.176800  0.248500  0.515000  1
  C  C32  1  0.152300  -0.210500  1.127700  1
  C  C33  1  -0.323900  0.794000  0.449400  1
  C  C34  1  -0.309000  0.765900  0.371400  1
  C  C35  1  1.323900  0.206000  0.550600  1
  C  C36  1  1.309000  0.234100  0.628600  1
  C  C37  1  0.341000  0.363100  0.165500  1
  C  C38  1  0.604300  0.160500  0.233240  1
  C  C39  1  0.717000  0.420400  0.113100  1
  C  C40  1  -0.469200  0.858200  0.479500  1
  C  C41  1  -0.436800  0.796000  0.324300  1
  C  C42  1  1.469200  0.141800  0.520500  1
  C  C43  1  1.436800  0.204000  0.675700  1
  C  C44  1  0.200100  0.296900  0.237500  1
  C  C45  1  0.294300  0.497600  0.140200  1
  C  C46  1  0.761400  0.122000  0.273300  1
  C  C47  1  0.621100  0.112200  0.156400  1
  C  C48  1  0.673900  0.555100  0.097700  1
  C  C49  1  -0.593700  0.892100  0.430100  1
  C  C50  1  -0.581600  0.860000  0.354100  1
  C  C51  1  1.593700  0.107900  0.569900  1
  C  C52  1  1.581600  0.140000  0.645900  1
  C  C53  1  0.807100  0.636500  0.035400  1
  C  C54  1  -0.731000  0.900200  0.319600  1
  C  C55  1  1.731000  0.099800  0.680400  1
  C  C56  1  0.740300  0.770500  0.021900  1
  C  C57  1  -0.849400  0.957900  0.365200  1
  C  C58  1  1.849400  0.042100  0.634800  1
  C  C59  1  0.862500  0.860300  -0.046400  1
  C  C60  1  0.796300  0.991200  -0.062000  1
  C  C61  1  0.918500  1.084300  -0.117500  1
  C  C62  1  0.847700  1.210500  -0.127700  1
  H  H63  1  0.648700  0.663400  0.886700  1
  H  H64  1  0.494400  0.878000  0.720700  1
  H  H65  1  0.273900  0.597300  0.941900  1
  H  H66  1  0.171200  0.601200  0.870100  1
  H  H67  1  0.907600  0.682100  0.782200  1
  H  H68  1  0.774000  0.790000  0.748800  1
  H  H69  1  0.809300  0.680000  0.710200  1
  H  H70  1  0.717600  0.475000  0.809100  1
  H  H71  1  0.616300  0.459300  0.907400  1
  H  H72  1  0.813500  0.486400  0.879300  1
  H  H73  1  0.137400  0.847300  0.771400  1
  H  H74  1  0.250900  0.845500  0.678500  1
  H  H75  1  0.226700  0.966100  0.704600  1
  H  H76  1  0.361200  0.975600  0.823400  1
  H  H77  1  0.483000  0.865500  0.866600  1
  H  H78  1  0.281800  0.853000  0.889900  1
  H  H79  1  0.348800  0.430100  0.845400  1
  H  H80  1  0.432400  0.423100  0.924500  1
  H  H81  1  0.088400  0.379100  0.941000  1
  H  H82  1  0.164700  0.379200  1.021300  1
  H  H83  1  0.279900  0.213400  0.921700  1
  H  H84  1  0.369900  0.217200  0.996200  1
  H  H85  1  0.028400  0.150600  1.027500  1
  H  H86  1  0.114700  0.157400  1.102300  1
  H  H87  1  0.244500  -0.004200  1.004500  1
  H  H88  1  0.303100  -0.004100  1.089300  1
  H  H89  1  -0.019800  -0.070800  1.091600  1
  H  H90  1  0.043900  -0.074400  1.176100  1
  H  H91  1  -0.163500  0.764300  0.536400  1
  H  H92  1  1.163500  0.235700  0.463600  1
  H  H93  1  0.194000  -0.220500  1.069900  1
  H  H94  1  0.063000  -0.266500  1.161700  1
  H  H95  1  0.246300  -0.227200  1.158200  1
  H  H96  1  0.351300  0.336600  0.113300  1
  H  H97  1  0.505600  0.122000  0.279300  1
  H  H98  1  0.726100  0.402700  0.058100  1
  H  H99  1  0.828800  0.398800  0.129900  1
  H  H100  1  -0.482400  0.877900  0.531600  1
  H  H101  1  -0.425700  0.773600  0.273400  1
  H  H102  1  1.482400  0.122100  0.468400  1
  H  H103  1  1.425700  0.226400  0.726600  1
  H  H104  1  0.092400  0.317900  0.217800  1
  H  H105  1  0.226000  0.210000  0.251200  1
  H  H106  1  0.190700  0.320000  0.289800  1
  H  H107  1  0.282400  0.525000  0.190900  1
  H  H108  1  0.383700  0.540700  0.092600  1
  H  H109  1  0.186500  0.513600  0.120700  1
  H  H110  1  0.862600  0.152700  0.228600  1
  H  H111  1  0.749100  0.154500  0.321500  1
  H  H112  1  0.773300  0.033900  0.295400  1
  H  H113  1  0.638800  0.024400  0.176600  1
  H  H114  1  0.517000  0.134500  0.133400  1
  H  H115  1  0.718200  0.147000  0.110100  1
  H  H116  1  0.651200  0.569900  0.154600  1
  H  H117  1  0.567600  0.576900  0.075500  1
  H  H118  1  0.911600  0.620900  0.059000  1
  H  H119  1  0.835300  0.620800  -0.021300  1
  H  H120  1  -0.745200  0.887100  0.268500  1
  H  H121  1  1.745200  0.112900  0.731500  1
  H  H122  1  0.720100  0.786600  0.078300  1
  H  H123  1  0.630100  0.782800  0.003800  1
  H  H124  1  -0.955600  0.989300  0.350100  1
  H  H125  1  1.955600  0.010700  0.649900  1
  H  H126  1  0.971600  0.849400  -0.027500  1
  H  H127  1  0.885300  0.842600  -0.102300  1
  H  H128  1  0.755500  1.004200  -0.004500  1
  H  H129  1  0.696900  1.004100  -0.089300  1
  H  H130  1  1.019800  1.070800  -0.091600  1
  H  H131  1  0.956100  1.074400  -0.176100  1
  H  H132  1  0.806000  1.220500  -0.069900  1
  H  H133  1  0.937000  1.266500  -0.161700  1
  H  H134  1  0.753700  1.227200  -0.158200  1
  S  S135  1  0.168870  0.649280  0.549670  1
  S  S136  1  0.831130  0.350720  0.450330  1
  S  S137  1  -0.116490  0.686080  0.347310  1
  S  S138  1  1.116490  0.313920  0.652690  1
  S  S139  1  -0.787860  0.969240  0.455360  1
  S  S140  1  1.787860  0.030760  0.544640  1
  Si  Si141  1  0.446410  0.672900  0.799720  1.0
  Si  Si142  1  0.553590  0.327100  0.200280  1
