# generated using pymatgen
data_H7C11
_symmetry_space_group_name_H-M   'P 1'
_cell_length_a   7.72830000
_cell_length_b   7.76280000
_cell_length_c   16.88050000
_cell_angle_alpha   78.07700000
_cell_angle_beta   89.22800000
_cell_angle_gamma   81.78800000
_symmetry_Int_Tables_number   1
_chemical_formula_structural   H7C11
_chemical_formula_sum   'H14 C22'
_cell_volume   980.57331195
_cell_formula_units_Z   2
loop_
 _symmetry_equiv_pos_site_id
 _symmetry_equiv_pos_as_xyz
  1  'x, y, z'
loop_
 _atom_site_type_symbol
 _atom_site_label
 _atom_site_symmetry_multiplicity
 _atom_site_fract_x
 _atom_site_fract_y
 _atom_site_fract_z
 _atom_site_occupancy
  C  C0  1  0.437800  0.446500  0.579910  1
  C  C1  1  0.545700  0.321800  0.543110  1
  C  C2  1  0.392700  0.625900  0.537420  1
  C  C3  1  0.590700  0.142700  0.583950  1
  C  C4  1  0.607300  0.374100  0.462580  1
  C  C5  1  0.454300  0.678200  0.456890  1
  C  C6  1  0.290200  0.752900  0.573160  1
  C  C7  1  0.692700  0.019400  0.548160  1
  C  C8  1  0.562200  0.553500  0.420090  1
  C  C9  1  0.709800  0.247100  0.426840  1
  C  C10  1  0.409300  0.857300  0.416050  1
  C  C11  1  0.248300  0.927800  0.532310  1
  C  C12  1  0.737000  -0.162400  0.589400  1
  C  C13  1  0.751700  0.072200  0.467690  1
  C  C14  1  0.307300  0.980600  0.451840  1
  C  C15  1  0.144200  1.060300  0.568080  1
  C  C16  1  0.835500  -0.282100  0.552500  1
  C  C17  1  0.855800  -0.060300  0.431920  1
  C  C18  1  0.263000  1.162400  0.410600  1
  C  C19  1  0.106200  1.230000  0.526400  1
  C  C20  1  0.893800  -0.230000  0.473600  1
  C  C21  1  0.164500  1.282100  0.447500  1
  H  H22  1  0.385916  0.402503  0.640586  1
  H  H23  1  0.543417  0.100456  0.645690  1
  H  H24  1  0.242211  0.712466  0.634902  1
  H  H25  1  0.614084  0.597497  0.359414  1
  H  H26  1  0.757789  0.287534  0.365098  1
  H  H27  1  0.456583  0.899544  0.354310  1
  H  H28  1  0.691143  -0.205475  0.651339  1
  H  H29  1  0.095165  1.023059  0.629834  1
  H  H30  1  0.869446  -0.420899  0.585033  1
  H  H31  1  0.904835  -0.023059  0.370166  1
  H  H32  1  0.308857  1.205475  0.348661  1
  H  H33  1  0.027699  1.329239  0.555145  1
  H  H34  1  0.972301  -0.329239  0.444855  1
  H  H35  1  0.130554  1.420899  0.414967  1
