# generated using pymatgen
data_H7C11
_symmetry_space_group_name_H-M   'P 1'
_cell_length_a   14.42400000
_cell_length_b   14.73880000
_cell_length_c   18.08700000
_cell_angle_alpha   90.00000000
_cell_angle_beta   90.00000000
_cell_angle_gamma   90.00000000
_symmetry_Int_Tables_number   1
_chemical_formula_structural   H7C11
_chemical_formula_sum   'H56 C88'
_cell_volume   3845.15966485
_cell_formula_units_Z   8
loop_
 _symmetry_equiv_pos_site_id
 _symmetry_equiv_pos_as_xyz
  1  'x, y, z'
loop_
 _atom_site_type_symbol
 _atom_site_label
 _atom_site_symmetry_multiplicity
 _atom_site_fract_x
 _atom_site_fract_y
 _atom_site_fract_z
 _atom_site_occupancy
  C  C0  1  0.484580  0.465560  0.572460  1
  C  C1  1  0.552540  0.424590  0.526610  1
  C  C2  1  0.430320  0.538830  0.546230  1
  C  C3  1  0.569680  0.461170  0.453770  1
  C  C4  1  0.602250  0.347560  0.549290  1
  C  C5  1  0.447460  0.575410  0.473390  1
  C  C6  1  0.359420  0.577840  0.589200  1
  C  C7  1  0.515420  0.534440  0.427540  1
  C  C8  1  0.640580  0.422160  0.410800  1
  C  C9  1  0.668780  0.307170  0.505100  1
  C  C10  1  0.397750  0.652440  0.450710  1
  C  C11  1  0.309700  0.652740  0.565490  1
  C  C12  1  0.690300  0.347260  0.434510  1
  C  C13  1  0.716750  0.226240  0.526310  1
  C  C14  1  0.331220  0.692830  0.494900  1
  C  C15  1  0.237960  0.693250  0.609180  1
  C  C16  1  0.762040  0.306750  0.390820  1
  C  C17  1  0.782940  0.189540  0.482520  1
  C  C18  1  0.283250  0.773760  0.473690  1
  C  C19  1  0.193580  0.768950  0.586240  1
  C  C20  1  0.806420  0.231050  0.413760  1
  C  C21  1  0.217060  0.810460  0.517480  1
  C  C22  1  0.015420  0.534440  1.072460  1
  C  C23  1  -0.052540  0.575410  1.026610  1
  C  C24  1  0.069680  0.461170  1.046230  1
  C  C25  1  -0.069680  0.538830  0.953770  1
  C  C26  1  -0.102250  0.652440  1.049290  1
  C  C27  1  0.052540  0.424590  0.973390  1
  C  C28  1  0.140580  0.422160  1.089200  1
  C  C29  1  -0.015420  0.465560  0.927540  1
  C  C30  1  -0.140580  0.577840  0.910800  1
  C  C31  1  -0.168780  0.692830  1.005100  1
  C  C32  1  0.102250  0.347560  0.950710  1
  C  C33  1  0.190300  0.347260  1.065490  1
  C  C34  1  -0.190300  0.652740  0.934510  1
  C  C35  1  -0.216750  0.773760  1.026310  1
  C  C36  1  0.168780  0.307170  0.994900  1
  C  C37  1  0.262040  0.306750  1.109180  1
  C  C38  1  -0.262040  0.693250  0.890820  1
  C  C39  1  -0.282940  0.810460  0.982520  1
  C  C40  1  0.216750  0.226240  0.973690  1
  C  C41  1  0.306420  0.231050  1.086240  1
  C  C42  1  -0.306420  0.768950  0.913760  1
  C  C43  1  0.282940  0.189540  1.017480  1
  C  C44  1  -0.015420  0.034440  0.427540  1
  C  C45  1  0.052540  0.075410  0.473390  1
  C  C46  1  -0.069680  -0.038830  0.453770  1
  C  C47  1  0.069680  0.038830  0.546230  1
  C  C48  1  0.102250  0.152440  0.450710  1
  C  C49  1  -0.052540  -0.075410  0.526610  1
  C  C50  1  -0.140580  -0.077840  0.410800  1
  C  C51  1  0.015420  -0.034440  0.572460  1
  C  C52  1  0.140580  0.077840  0.589200  1
  C  C53  1  0.168780  0.192830  0.494900  1
  C  C54  1  -0.102250  -0.152440  0.549290  1
  C  C55  1  -0.190300  -0.152740  0.434510  1
  C  C56  1  0.190300  0.152740  0.565490  1
  C  C57  1  0.216750  0.273760  0.473690  1
  C  C58  1  -0.168780  -0.192830  0.505100  1
  C  C59  1  -0.262040  -0.193250  0.390820  1
  C  C60  1  0.262040  0.193250  0.609180  1
  C  C61  1  0.282940  0.310460  0.517480  1
  C  C62  1  -0.216750  -0.273760  0.526310  1
  C  C63  1  -0.306420  -0.268950  0.413760  1
  C  C64  1  0.306420  0.268950  0.586240  1
  C  C65  1  -0.282940  -0.310460  0.482520  1
  C  C66  1  0.515420  -0.034440  0.927540  1
  C  C67  1  0.447460  -0.075410  0.973390  1
  C  C68  1  0.569680  0.038830  0.953770  1
  C  C69  1  0.430320  -0.038830  1.046230  1
  C  C70  1  0.397750  -0.152440  0.950710  1
  C  C71  1  0.552540  0.075410  1.026610  1
  C  C72  1  0.640580  0.077840  0.910800  1
  C  C73  1  0.484580  0.034440  1.072460  1
  C  C74  1  0.359420  -0.077840  1.089200  1
  C  C75  1  0.331220  -0.192830  0.994900  1
  C  C76  1  0.602250  0.152440  1.049290  1
  C  C77  1  0.690300  0.152740  0.934510  1
  C  C78  1  0.309700  -0.152740  1.065490  1
  C  C79  1  0.283250  -0.273760  0.973690  1
  C  C80  1  0.668780  0.192830  1.005100  1
  C  C81  1  0.762040  0.193250  0.890820  1
  C  C82  1  0.237960  -0.193250  1.109180  1
  C  C83  1  0.217060  -0.310460  1.017480  1
  C  C84  1  0.716750  0.273760  1.026310  1
  C  C85  1  0.806420  0.268950  0.913760  1
  C  C86  1  0.193580  -0.268950  1.086240  1
  C  C87  1  0.782940  0.310460  0.982520  1
  H  H88  1  0.473830  0.440216  0.629017  1
  H  H89  1  0.588510  0.317630  0.603914  1
  H  H90  1  0.342187  0.548638  0.643455  1
  H  H91  1  0.526170  0.559784  0.370983  1
  H  H92  1  0.657813  0.451362  0.356545  1
  H  H93  1  0.411490  0.682370  0.396086  1
  H  H94  1  0.702118  0.190720  0.578509  1
  H  H95  1  0.215993  0.664997  0.662676  1
  H  H96  1  0.784007  0.335003  0.337324  1
  H  H97  1  0.816914  0.127327  0.502383  1
  H  H98  1  0.297882  0.809280  0.421491  1
  H  H99  1  0.139409  0.796243  0.622817  1
  H  H100  1  0.860591  0.203757  0.377183  1
  H  H101  1  0.183086  0.872673  0.497617  1
  H  H102  1  0.026170  0.559784  1.129017  1
  H  H103  1  -0.088510  0.682370  1.103914  1
  H  H104  1  0.157813  0.451362  1.143455  1
  H  H105  1  -0.026170  0.440216  0.870983  1
  H  H106  1  -0.157813  0.548638  0.856545  1
  H  H107  1  0.088510  0.317630  0.896086  1
  H  H108  1  -0.202118  0.809280  1.078509  1
  H  H109  1  0.284007  0.335003  1.162676  1
  H  H110  1  -0.284007  0.664997  0.837324  1
  H  H111  1  -0.316914  0.872673  1.002383  1
  H  H112  1  0.202118  0.190720  0.921491  1
  H  H113  1  0.360591  0.203757  1.122817  1
  H  H114  1  -0.360591  0.796243  0.877183  1
  H  H115  1  0.316914  0.127327  0.997617  1
  H  H116  1  -0.026170  0.059784  0.370983  1
  H  H117  1  0.088510  0.182370  0.396086  1
  H  H118  1  -0.157813  -0.048638  0.356545  1
  H  H119  1  0.026170  -0.059784  0.629017  1
  H  H120  1  0.157813  0.048638  0.643455  1
  H  H121  1  -0.088510  -0.182370  0.603914  1
  H  H122  1  0.202118  0.309280  0.421491  1
  H  H123  1  -0.284007  -0.164997  0.337324  1
  H  H124  1  0.284007  0.164997  0.662676  1
  H  H125  1  0.316914  0.372673  0.497617  1
  H  H126  1  -0.202118  -0.309280  0.578509  1
  H  H127  1  -0.360591  -0.296243  0.377183  1
  H  H128  1  0.360591  0.296243  0.622817  1
  H  H129  1  -0.316914  -0.372673  0.502383  1
  H  H130  1  0.526170  -0.059784  0.870983  1
  H  H131  1  0.411490  -0.182370  0.896086  1
  H  H132  1  0.657813  0.048638  0.856545  1
  H  H133  1  0.473830  0.059784  1.129017  1
  H  H134  1  0.342187  -0.048638  1.143455  1
  H  H135  1  0.588510  0.182370  1.103914  1
  H  H136  1  0.297882  -0.309280  0.921491  1
  H  H137  1  0.784007  0.164997  0.837324  1
  H  H138  1  0.215993  -0.164997  1.162676  1
  H  H139  1  0.183086  -0.372673  0.997617  1
  H  H140  1  0.702118  0.309280  1.078509  1
  H  H141  1  0.860591  0.296243  0.877183  1
  H  H142  1  0.139409  -0.296243  1.122817  1
  H  H143  1  0.816914  0.372673  1.002383  1
