# generated using pymatgen
data_H7C11
_symmetry_space_group_name_H-M   'P 1'
_cell_length_a   9.09170000
_cell_length_b   9.31210000
_cell_length_c   14.11540000
_cell_angle_alpha   84.22800000
_cell_angle_beta   84.71300000
_cell_angle_gamma   82.67500000
_symmetry_Int_Tables_number   1
_chemical_formula_structural   H7C11
_chemical_formula_sum   'H28 C44'
_cell_volume   1175.47110620
_cell_formula_units_Z   4
loop_
 _symmetry_equiv_pos_site_id
 _symmetry_equiv_pos_as_xyz
  1  'x, y, z'
loop_
 _atom_site_type_symbol
 _atom_site_label
 _atom_site_symmetry_multiplicity
 _atom_site_fract_x
 _atom_site_fract_y
 _atom_site_fract_z
 _atom_site_occupancy
  C  C0  1  0.297680  0.736430  0.558630  1
  C  C1  1  0.295290  0.878350  0.504770  1
  C  C2  1  0.397620  0.620310  0.531040  1
  C  C3  1  0.399090  0.901820  0.425410  1
  C  C4  1  0.188590  0.995750  0.528100  1
  C  C5  1  0.504250  0.637960  0.448610  1
  C  C6  1  0.401310  0.477770  0.580740  1
  C  C7  1  0.512720  0.782300  0.395490  1
  C  C8  1  0.395840  1.037310  0.373240  1
  C  C9  1  0.188010  1.130030  0.476810  1
  C  C10  1  0.598690  0.522230  0.419260  1
  C  C11  1  0.495750  0.362040  0.551390  1
  C  C12  1  0.292160  1.152200  0.398960  1
  C  C13  1  0.602380  0.379690  0.468960  1
  C  C14  1  0.487280  0.217700  0.604510  1
  C  C15  1  0.702320  0.263570  0.441370  1
  C  C16  1  0.600910  0.098180  0.574590  1
  C  C17  1  0.704710  0.121650  0.495230  1
  C  C18  1  0.604160  -0.037310  0.626760  1
  C  C19  1  0.811410  0.004250  0.471900  1
  C  C20  1  0.707840  -0.152200  0.601040  1
  C  C21  1  0.811990  -0.130030  0.523190  1
  H  H22  1  0.216926  0.721737  0.620774  1
  H  H23  1  0.104437  0.980063  0.588184  1
  H  H24  1  0.324993  0.461247  0.644957  1
  H  H25  1  0.596633  0.798881  0.335389  1
  H  H26  1  0.476309  1.053286  0.311099  1
  H  H27  1  0.104935  1.220473  0.497304  1
  H  H28  1  0.675007  0.538753  0.355043  1
  H  H29  1  0.291743  1.259625  0.358606  1
  H  H30  1  0.403367  0.201119  0.664611  1
  H  H31  1  0.783074  0.278263  0.379226  1
  H  H32  1  0.523691  -0.053286  0.688901  1
  H  H33  1  0.895563  0.019937  0.411816  1
  H  H34  1  0.708257  -0.259625  0.641394  1
  H  H35  1  0.895065  -0.220473  0.502696  1
  C  C36  1  0.299040  -0.210330  1.040420  1
  C  C37  1  0.313350  -0.336330  0.984730  1
  C  C38  1  0.396410  -0.106610  1.020950  1
  C  C39  1  0.424000  -0.352080  0.908230  1
  C  C40  1  0.218300  -0.445800  1.005160  1
  C  C41  1  0.514860  -0.119610  0.944490  1
  C  C42  1  0.387680  0.018240  1.074370  1
  C  C43  1  0.532090  -0.245050  0.884970  1
  C  C44  1  0.435660  -0.470990  0.853360  1
  C  C45  1  0.231500  -0.562990  0.950420  1
  C  C46  1  0.612320  -0.018240  0.925630  1
  C  C47  1  0.485140  0.119610  1.055510  1
  C  C48  1  0.339490  -0.575980  0.873670  1
  C  C49  1  0.603590  0.106610  0.979050  1
  C  C50  1  0.467910  0.245050  1.115030  1
  C  C51  1  0.700960  0.210330  0.959580  1
  C  C52  1  0.576000  0.352080  1.091770  1
  C  C53  1  0.686650  0.336330  1.015270  1
  C  C54  1  0.564340  0.470990  1.146640  1
  C  C55  1  0.781700  0.445800  0.994840  1
  C  C56  1  0.660510  0.575980  1.126330  1
  C  C57  1  0.768500  0.562990  1.049580  1
  H  H58  1  0.210724  -0.202177  1.099049  1
  H  H59  1  0.132511  -0.438043  1.065293  1
  H  H60  1  0.299358  0.032667  1.132530  1
  H  H61  1  0.621155  -0.257744  0.827102  1
  H  H62  1  0.521970  -0.481075  0.793659  1
  H  H63  1  0.155919  -0.646916  0.967643  1
  H  H64  1  0.700642  -0.032667  0.867470  1
  H  H65  1  0.347958  -0.668443  0.829917  1
  H  H66  1  0.378845  0.257744  1.172898  1
  H  H67  1  0.789276  0.202177  0.900951  1
  H  H68  1  0.478030  0.481075  1.206341  1
  H  H69  1  0.867489  0.438043  0.934707  1
  H  H70  1  0.652042  0.668443  1.170083  1
  H  H71  1  0.844081  0.646916  1.032357  1
